ArcFiles.txt

Disclaimer.txt
license.txt
Notice.txt
ChangeLog.txt
OutListParameters.xlsx

Documentation\AeroDyn_Manual.pdf
Documentation\UnsteadyAero_Manual.pdf

CertTest\Wind\AOC_AeroDyn_blade.dat
CertTest\Wind\AOC_AeroDyn_Test01.dat
CertTest\Wind\AOC_AeroDyn_Test02.dat
CertTest\Wind\AOC_AeroDyn_Test03.dat
CertTest\Wind\AOC_Test01.dvr
CertTest\Wind\AOC_Test02.dvr
CertTest\Wind\AOC_Test03.dvr
CertTest\Wind\Run_Tests.bat
CertTest\Wind\NRELOffshrBsline5MW_AeroDyn_blade.dat
CertTest\Wind\NRELOffshrBsline5MW_Onshore_AeroDyn15_Test01.dat
CertTest\Wind\NRELOffshrBsline5MW_Onshore_AeroDyn15_Test02.dat
CertTest\Wind\NRELOffshrBsline5MW_Onshore_AeroDyn15_Test03.dat
CertTest\Wind\NRELOffshrBsline5MW_Onshore_Test01.dvr
CertTest\Wind\NRELOffshrBsline5MW_Onshore_Test02.dvr
CertTest\Wind\NRELOffshrBsline5MW_Onshore_Test03.dvr
CertTest\Wind\PlotClCdCmCurves_DT.m
CertTest\Wind\PlotClCdCmCurves_Hz.m
CertTest\Wind\Airfoils\AOC\*
CertTest\Wind\Airfoils\NREL_5MW\*
CertTest\Wind\NREL_Results\*

CertTest\Wind\UA_Tests\05000051_AD15.dat
CertTest\Wind\UA_Tests\05014051.dvr
CertTest\Wind\UA_Tests\05014051_UAMod2.dvr
CertTest\Wind\UA_Tests\05014061.dvr
CertTest\Wind\UA_Tests\05014061_UAMod2.dvr
CertTest\Wind\UA_Tests\C10l100AM20_s809.dvr
CertTest\Wind\UA_Tests\C10l100AM20_s809_UAMod2.dvr
CertTest\Wind\UA_Tests\C10m100AM14_LS417.dvr
CertTest\Wind\UA_Tests\C10m100AM14_LS417_UAMod2.dvr
CertTest\Wind\UA_Tests\C10m100AM20_s809.dvr
CertTest\Wind\UA_Tests\C10m100AM20_s809_UAMod2.dvr
CertTest\Wind\UA_Tests\C10m150AM14_LS417.dvr
CertTest\Wind\UA_Tests\C10m150AM14_LS417_UAMod2.dvr
CertTest\Wind\UA_Tests\Compare_2D_Results.m
CertTest\Wind\UA_Tests\L417_C100_AD15.dat
CertTest\Wind\UA_Tests\L417_C150_AD15.dat
CertTest\Wind\UA_Tests\Run_2D_Tests.bat
CertTest\Wind\UA_Tests\S809_AD15.dat
CertTest\Wind\UA_Tests\S813_15.dat
CertTest\Wind\UA_Tests\S813_15_mod2.dvr
CertTest\Wind\UA_Tests\Exp_Results\*
CertTest\Wind\UA_Tests\NREL_Results\*

CertTest\MHK\Airfoils\NACA63815.dat
CertTest\MHK\Airfoils\NRELS814.dat
CertTest\MHK\NREL_Results\*
CertTest\MHK\*


