! This hub-height wind-speed file was generated by TurbSim (v2.00.07a-bjj, 14-Jun-2016) on 13-Nov-2023 at 01:27:52.
!
! The requested statistics for this data were:
!    Mean Total Wind Speed =   20.000 m/s
!    Turbulence Intensity  =   14.420%
!
!   Time  HorSpd  WndDir  VerSpd  HorShr  VerShr  LnVShr  GstSpd
!  (sec)   (m/s)   (deg)   (m/s)     (-)     (-)     (-)   (m/s)
   0.000   24.87  -11.49   -0.64   0.000   0.200   0.000    0.00
   0.050   25.10  -11.84   -1.61   0.000   0.200   0.000    0.00
   0.100   24.82  -12.24   -1.19   0.000   0.200   0.000    0.00
   0.150   24.41  -10.19   -2.09   0.000   0.200   0.000    0.00
   0.200   24.90   -8.81   -2.12   0.000   0.200   0.000    0.00
   0.250   25.30   -9.51   -2.85   0.000   0.200   0.000    0.00
   0.300   24.77  -10.03   -2.61   0.000   0.200   0.000    0.00
   0.350   25.23   -8.81   -2.47   0.000   0.200   0.000    0.00
   0.400   25.23   -8.07   -2.49   0.000   0.200   0.000    0.00
   0.450   24.91   -5.57   -3.07   0.000   0.200   0.000    0.00
   0.500   25.16   -2.64   -3.10   0.000   0.200   0.000    0.00
   0.550   24.66   -3.00   -3.48   0.000   0.200   0.000    0.00
   0.600   25.92   -2.11   -4.18   0.000   0.200   0.000    0.00
   0.650   25.09   -1.37   -3.33   0.000   0.200   0.000    0.00
   0.700   26.33   -3.42   -3.52   0.000   0.200   0.000    0.00
   0.750   26.59   -4.22   -3.25   0.000   0.200   0.000    0.00
   0.800   27.40   -6.37   -2.92   0.000   0.200   0.000    0.00
   0.850   27.56   -4.64   -2.42   0.000   0.200   0.000    0.00
   0.900   26.64   -4.54   -3.03   0.000   0.200   0.000    0.00
   0.950   27.14   -4.67   -3.04   0.000   0.200   0.000    0.00
   1.000   28.64   -4.14   -3.62   0.000   0.200   0.000    0.00
   1.050   28.95   -4.57   -4.55   0.000   0.200   0.000    0.00
   1.100   28.48   -3.74   -4.45   0.000   0.200   0.000    0.00
   1.150   28.39   -4.84   -4.26   0.000   0.200   0.000    0.00
   1.200   28.15   -6.44   -4.08   0.000   0.200   0.000    0.00
   1.250   28.30   -6.60   -4.87   0.000   0.200   0.000    0.00
   1.300   27.82   -6.19   -4.07   0.000   0.200   0.000    0.00
   1.350   28.12   -6.00   -4.31   0.000   0.200   0.000    0.00
   1.400   28.72   -4.92   -4.16   0.000   0.200   0.000    0.00
   1.450   28.82   -5.25   -3.91   0.000   0.200   0.000    0.00
   1.500   27.78   -6.16   -2.48   0.000   0.200   0.000    0.00
   1.550   27.66   -4.31   -2.07   0.000   0.200   0.000    0.00
   1.600   27.19   -5.85   -2.83   0.000   0.200   0.000    0.00
   1.650   27.55   -5.87   -3.29   0.000   0.200   0.000    0.00
   1.700   27.56   -5.51   -2.78   0.000   0.200   0.000    0.00
   1.750   26.91   -5.79   -2.59   0.000   0.200   0.000    0.00
   1.800   25.59   -5.19   -3.13   0.000   0.200   0.000    0.00
   1.850   25.04   -4.38   -2.99   0.000   0.200   0.000    0.00
   1.900   25.24   -5.27   -2.41   0.000   0.200   0.000    0.00
   1.950   25.62   -6.03   -2.64   0.000   0.200   0.000    0.00
   2.000   25.34   -5.86   -2.07   0.000   0.200   0.000    0.00
   2.050   25.87   -5.23   -2.09   0.000   0.200   0.000    0.00
   2.100   24.88   -3.13   -1.64   0.000   0.200   0.000    0.00
   2.150   24.59   -2.94   -0.66   0.000   0.200   0.000    0.00
   2.200   24.47   -2.87   -1.15   0.000   0.200   0.000    0.00
   2.250   24.96   -4.78   -1.91   0.000   0.200   0.000    0.00
   2.300   25.87   -4.92   -2.66   0.000   0.200   0.000    0.00
   2.350   25.15   -3.94   -3.02   0.000   0.200   0.000    0.00
   2.400   24.37   -3.59   -2.90   0.000   0.200   0.000    0.00
   2.450   24.08   -4.24   -3.28   0.000   0.200   0.000    0.00
   2.500   23.40   -6.17   -2.47   0.000   0.200   0.000    0.00
   2.550   22.68   -6.73   -2.46   0.000   0.200   0.000    0.00
   2.600   23.18   -6.21   -2.98   0.000   0.200   0.000    0.00
   2.650   23.30   -2.86   -2.77   0.000   0.200   0.000    0.00
   2.700   22.94   -2.18   -2.96   0.000   0.200   0.000    0.00
   2.750   22.33   -3.68   -3.32   0.000   0.200   0.000    0.00
   2.800   22.07   -4.34   -3.41   0.000   0.200   0.000    0.00
   2.850   21.58   -7.07   -3.58   0.000   0.200   0.000    0.00
   2.900   22.15   -7.56   -3.34   0.000   0.200   0.000    0.00
   2.950   21.13   -6.62   -3.26   0.000   0.200   0.000    0.00
   3.000   21.59   -8.55   -3.23   0.000   0.200   0.000    0.00
   3.050   22.21   -9.56   -3.13   0.000   0.200   0.000    0.00
   3.100   21.56  -12.20   -3.61   0.000   0.200   0.000    0.00
   3.150   21.88  -13.37   -4.16   0.000   0.200   0.000    0.00
   3.200   21.87  -10.75   -4.77   0.000   0.200   0.000    0.00
   3.250   22.84  -10.95   -4.73   0.000   0.200   0.000    0.00
   3.300   22.57   -8.78   -5.21   0.000   0.200   0.000    0.00
   3.350   22.51   -7.92   -5.12   0.000   0.200   0.000    0.00
   3.400   21.72   -7.12   -3.48   0.000   0.200   0.000    0.00
   3.450   21.29   -5.09   -3.82   0.000   0.200   0.000    0.00
   3.500   20.99   -5.45   -3.66   0.000   0.200   0.000    0.00
   3.550   21.48   -6.06   -4.85   0.000   0.200   0.000    0.00
   3.600   20.77  -10.22   -4.84   0.000   0.200   0.000    0.00
   3.650   21.40   -8.17   -4.99   0.000   0.200   0.000    0.00
   3.700   21.63  -11.64   -5.37   0.000   0.200   0.000    0.00
   3.750   21.81  -11.91   -4.69   0.000   0.200   0.000    0.00
   3.800   21.89   -8.82   -4.19   0.000   0.200   0.000    0.00
   3.850   21.18   -8.39   -5.11   0.000   0.200   0.000    0.00
   3.900   21.18   -9.33   -4.35   0.000   0.200   0.000    0.00
   3.950   21.07   -9.89   -3.84   0.000   0.200   0.000    0.00
   4.000   21.08  -11.91   -4.39   0.000   0.200   0.000    0.00
   4.050   21.05  -12.61   -3.67   0.000   0.200   0.000    0.00
   4.100   21.17  -11.01   -2.77   0.000   0.200   0.000    0.00
   4.150   21.54  -13.08   -2.55   0.000   0.200   0.000    0.00
   4.200   21.78  -12.04   -2.56   0.000   0.200   0.000    0.00
   4.250   21.82  -12.07   -1.67   0.000   0.200   0.000    0.00
   4.300   21.68  -10.55   -2.89   0.000   0.200   0.000    0.00
   4.350   21.04   -6.21   -2.65   0.000   0.200   0.000    0.00
   4.400   20.14   -6.66   -1.10   0.000   0.200   0.000    0.00
   4.450   20.28   -8.69    0.03   0.000   0.200   0.000    0.00
   4.500   19.44  -10.76   -0.10   0.000   0.200   0.000    0.00
   4.550   19.82   -9.95   -0.78   0.000   0.200   0.000    0.00
   4.600   20.32   -6.58   -1.98   0.000   0.200   0.000    0.00
   4.650   20.64   -4.13   -3.04   0.000   0.200   0.000    0.00
   4.700   21.59   -4.33   -1.59   0.000   0.200   0.000    0.00
   4.750   21.69   -4.53   -1.22   0.000   0.200   0.000    0.00
   4.800   20.35   -5.45   -2.40   0.000   0.200   0.000    0.00
   4.850   19.84   -5.70   -3.69   0.000   0.200   0.000    0.00
   4.900   19.66   -3.91   -3.17   0.000   0.200   0.000    0.00
   4.950   20.22   -4.70   -4.24   0.000   0.200   0.000    0.00
   5.000   19.22   -3.21   -3.60   0.000   0.200   0.000    0.00
   5.050   18.19   -2.07   -3.46   0.000   0.200   0.000    0.00
   5.100   18.75   -4.51   -3.79   0.000   0.200   0.000    0.00
   5.150   18.81   -6.24   -4.17   0.000   0.200   0.000    0.00
   5.200   19.73   -6.20   -4.14   0.000   0.200   0.000    0.00
   5.250   18.67   -5.44   -3.97   0.000   0.200   0.000    0.00
   5.300   18.41   -5.44   -4.56   0.000   0.200   0.000    0.00
   5.350   18.08   -2.21   -5.09   0.000   0.200   0.000    0.00
   5.400   18.03   -0.69   -5.36   0.000   0.200   0.000    0.00
   5.450   18.31   -2.16   -5.44   0.000   0.200   0.000    0.00
   5.500   18.23    0.74   -5.14   0.000   0.200   0.000    0.00
   5.550   18.02    0.59   -3.60   0.000   0.200   0.000    0.00
   5.600   17.96   -0.01   -4.72   0.000   0.200   0.000    0.00
   5.650   18.32    1.67   -4.91   0.000   0.200   0.000    0.00
   5.700   18.79    0.95   -4.77   0.000   0.200   0.000    0.00
   5.750   18.54   -2.27   -4.31   0.000   0.200   0.000    0.00
   5.800   19.38   -4.97   -3.48   0.000   0.200   0.000    0.00
   5.850   19.80   -3.35   -3.20   0.000   0.200   0.000    0.00
   5.900   19.90   -5.17   -4.62   0.000   0.200   0.000    0.00
   5.950   18.78   -7.24   -4.42   0.000   0.200   0.000    0.00
   6.000   17.94   -7.77   -3.44   0.000   0.200   0.000    0.00
   6.050   18.80   -7.82   -4.19   0.000   0.200   0.000    0.00
   6.100   17.35   -4.04   -3.40   0.000   0.200   0.000    0.00
   6.150   18.13   -5.12   -4.46   0.000   0.200   0.000    0.00
   6.200   18.12   -1.09   -3.91   0.000   0.200   0.000    0.00
   6.250   18.65   -3.62   -3.52   0.000   0.200   0.000    0.00
   6.300   19.47   -1.84   -4.57   0.000   0.200   0.000    0.00
   6.350   18.53   -2.07   -4.86   0.000   0.200   0.000    0.00
   6.400   18.05   -4.84   -4.51   0.000   0.200   0.000    0.00
   6.450   17.15   -3.11   -4.14   0.000   0.200   0.000    0.00
   6.500   17.74   -2.19   -3.99   0.000   0.200   0.000    0.00
   6.550   17.87   -2.40   -3.08   0.000   0.200   0.000    0.00
   6.600   17.94   -4.20   -2.07   0.000   0.200   0.000    0.00
   6.650   17.20   -7.33   -1.17   0.000   0.200   0.000    0.00
   6.700   17.65   -4.26   -0.74   0.000   0.200   0.000    0.00
   6.750   17.33   -5.00   -1.09   0.000   0.200   0.000    0.00
   6.800   17.76   -8.52   -0.77   0.000   0.200   0.000    0.00
   6.850   17.40   -7.62   -0.65   0.000   0.200   0.000    0.00
   6.900   16.63   -9.64   -1.11   0.000   0.200   0.000    0.00
   6.950   17.62   -8.25   -1.31   0.000   0.200   0.000    0.00
   7.000   17.87   -5.30   -1.67   0.000   0.200   0.000    0.00
   7.050   18.09   -9.12   -2.13   0.000   0.200   0.000    0.00
   7.100   17.99   -8.70   -2.79   0.000   0.200   0.000    0.00
   7.150   17.95  -10.27   -2.88   0.000   0.200   0.000    0.00
   7.200   18.00  -11.58   -2.18   0.000   0.200   0.000    0.00
   7.250   18.29  -10.59   -1.26   0.000   0.200   0.000    0.00
   7.300   19.92  -10.98   -1.67   0.000   0.200   0.000    0.00
   7.350   20.46  -12.57   -1.67   0.000   0.200   0.000    0.00
   7.400   20.39  -10.55   -1.90   0.000   0.200   0.000    0.00
   7.450   19.23  -11.31   -3.32   0.000   0.200   0.000    0.00
   7.500   20.43  -11.07   -3.32   0.000   0.200   0.000    0.00
   7.550   21.30   -8.60   -3.17   0.000   0.200   0.000    0.00
   7.600   21.29   -8.56   -2.60   0.000   0.200   0.000    0.00
   7.650   20.31   -9.47   -2.14   0.000   0.200   0.000    0.00
   7.700   19.61   -9.14   -2.22   0.000   0.200   0.000    0.00
   7.750   20.61   -5.58   -1.42   0.000   0.200   0.000    0.00
   7.800   20.88   -7.60   -2.38   0.000   0.200   0.000    0.00
   7.850   20.91   -6.79   -2.93   0.000   0.200   0.000    0.00
   7.900   20.46   -5.47   -2.60   0.000   0.200   0.000    0.00
   7.950   20.80   -2.69   -2.23   0.000   0.200   0.000    0.00
   8.000   20.88   -5.64   -2.21   0.000   0.200   0.000    0.00
   8.050   20.74   -6.78   -2.41   0.000   0.200   0.000    0.00
   8.100   20.82   -6.59   -3.37   0.000   0.200   0.000    0.00
   8.150   20.34   -6.65   -2.99   0.000   0.200   0.000    0.00
   8.200   19.34   -5.40   -2.50   0.000   0.200   0.000    0.00
   8.250   19.77   -4.38   -2.38   0.000   0.200   0.000    0.00
   8.300   20.32   -4.66   -2.23   0.000   0.200   0.000    0.00
   8.350   20.40   -2.79   -3.34   0.000   0.200   0.000    0.00
   8.400   20.99   -4.65   -3.14   0.000   0.200   0.000    0.00
   8.450   20.65   -4.15   -2.14   0.000   0.200   0.000    0.00
   8.500   20.23   -5.27   -1.76   0.000   0.200   0.000    0.00
   8.550   19.90   -3.74   -2.26   0.000   0.200   0.000    0.00
   8.600   18.93   -1.21   -1.30   0.000   0.200   0.000    0.00
   8.650   18.63   -3.16   -1.73   0.000   0.200   0.000    0.00
   8.700   18.56   -1.45   -2.39   0.000   0.200   0.000    0.00
   8.750   17.62    0.24   -3.23   0.000   0.200   0.000    0.00
   8.800   17.92   -3.05   -3.16   0.000   0.200   0.000    0.00
   8.850   16.87   -4.17   -3.38   0.000   0.200   0.000    0.00
   8.900   16.58   -0.78   -3.63   0.000   0.200   0.000    0.00
   8.950   16.91    1.95   -2.74   0.000   0.200   0.000    0.00
   9.000   16.87    2.74   -2.59   0.000   0.200   0.000    0.00
   9.050   17.25    0.70   -2.69   0.000   0.200   0.000    0.00
   9.100   17.00   -1.24   -3.04   0.000   0.200   0.000    0.00
   9.150   17.31   -1.99   -2.75   0.000   0.200   0.000    0.00
   9.200   17.39   -1.69   -2.73   0.000   0.200   0.000    0.00
   9.250   16.79   -1.31   -2.27   0.000   0.200   0.000    0.00
   9.300   18.03    2.45   -2.22   0.000   0.200   0.000    0.00
   9.350   18.09    2.91   -2.97   0.000   0.200   0.000    0.00
   9.400   18.32    4.20   -3.29   0.000   0.200   0.000    0.00
   9.450   18.90    4.26   -3.16   0.000   0.200   0.000    0.00
   9.500   18.25    3.32   -3.38   0.000   0.200   0.000    0.00
   9.550   18.80    0.22   -3.15   0.000   0.200   0.000    0.00
   9.600   19.20   -0.11   -1.87   0.000   0.200   0.000    0.00
   9.650   19.06    0.68   -0.77   0.000   0.200   0.000    0.00
   9.700   18.63    2.68   -0.53   0.000   0.200   0.000    0.00
   9.750   18.71    0.63   -0.83   0.000   0.200   0.000    0.00
   9.800   17.78    1.44   -0.64   0.000   0.200   0.000    0.00
   9.850   17.81    1.01   -1.32   0.000   0.200   0.000    0.00
   9.900   17.07   -0.28   -1.76   0.000   0.200   0.000    0.00
   9.950   17.68   -0.06   -2.09   0.000   0.200   0.000    0.00
  10.000   18.04   -1.45   -0.26   0.000   0.200   0.000    0.00
  10.050   17.08   -2.93    0.55   0.000   0.200   0.000    0.00
  10.100   16.43   -1.67   -0.38   0.000   0.200   0.000    0.00
  10.150   16.63   -0.63   -0.85   0.000   0.200   0.000    0.00
  10.200   16.25   -0.17   -1.92   0.000   0.200   0.000    0.00
  10.250   14.97   -0.80   -1.41   0.000   0.200   0.000    0.00
  10.300   15.08   -0.93   -1.48   0.000   0.200   0.000    0.00
  10.350   15.64    1.16   -2.12   0.000   0.200   0.000    0.00
  10.400   16.00   -2.84   -2.49   0.000   0.200   0.000    0.00
  10.450   15.93   -3.56   -2.46   0.000   0.200   0.000    0.00
  10.500   16.04    2.59   -2.30   0.000   0.200   0.000    0.00
  10.550   15.34    5.71   -2.17   0.000   0.200   0.000    0.00
  10.600   16.48    9.88   -2.44   0.000   0.200   0.000    0.00
  10.650   16.87   12.62   -1.55   0.000   0.200   0.000    0.00
  10.700   16.53    6.85   -2.10   0.000   0.200   0.000    0.00
  10.750   16.50    4.40   -1.76   0.000   0.200   0.000    0.00
  10.800   16.66    8.24   -0.78   0.000   0.200   0.000    0.00
  10.850   17.21   11.23   -1.05   0.000   0.200   0.000    0.00
  10.900   17.03   11.78   -0.54   0.000   0.200   0.000    0.00
  10.950   16.73   10.26   -0.64   0.000   0.200   0.000    0.00
  11.000   17.32    9.24   -0.86   0.000   0.200   0.000    0.00
  11.050   17.20    8.75   -0.52   0.000   0.200   0.000    0.00
  11.100   17.43    8.91   -0.75   0.000   0.200   0.000    0.00
  11.150   16.99    6.94   -0.11   0.000   0.200   0.000    0.00
  11.200   17.31    6.07   -0.74   0.000   0.200   0.000    0.00
  11.250   16.86    5.06   -0.05   0.000   0.200   0.000    0.00
  11.300   16.23    5.55   -0.11   0.000   0.200   0.000    0.00
  11.350   16.55   10.02   -0.49   0.000   0.200   0.000    0.00
  11.400   16.62    9.27    0.15   0.000   0.200   0.000    0.00
  11.450   16.48    5.35    0.57   0.000   0.200   0.000    0.00
  11.500   16.63    4.49    0.54   0.000   0.200   0.000    0.00
  11.550   16.72    3.93   -0.04   0.000   0.200   0.000    0.00
  11.600   16.84    0.68   -0.11   0.000   0.200   0.000    0.00
  11.650   17.56   -2.08   -0.27   0.000   0.200   0.000    0.00
  11.700   18.01   -4.64   -0.23   0.000   0.200   0.000    0.00
  11.750   18.21   -3.64   -0.89   0.000   0.200   0.000    0.00
  11.800   18.11   -2.50   -1.62   0.000   0.200   0.000    0.00
  11.850   18.24   -5.96   -1.79   0.000   0.200   0.000    0.00
  11.900   17.94   -4.21   -1.60   0.000   0.200   0.000    0.00
  11.950   18.47   -4.42   -1.76   0.000   0.200   0.000    0.00
  12.000   18.30   -2.87   -0.80   0.000   0.200   0.000    0.00
  12.050   18.61   -3.50   -1.60   0.000   0.200   0.000    0.00
  12.100   18.12   -3.47   -1.14   0.000   0.200   0.000    0.00
  12.150   18.53   -2.51   -0.74   0.000   0.200   0.000    0.00
  12.200   19.43   -3.17   -0.57   0.000   0.200   0.000    0.00
  12.250   19.08    0.03   -0.30   0.000   0.200   0.000    0.00
  12.300   19.13   -0.10   -0.66   0.000   0.200   0.000    0.00
  12.350   18.54   -1.14    0.48   0.000   0.200   0.000    0.00
  12.400   18.50    1.85    0.97   0.000   0.200   0.000    0.00
  12.450   18.40    3.27    1.14   0.000   0.200   0.000    0.00
  12.500   18.18    2.04    1.41   0.000   0.200   0.000    0.00
  12.550   18.89    0.08    1.32   0.000   0.200   0.000    0.00
  12.600   19.54   -0.89    0.67   0.000   0.200   0.000    0.00
  12.650   20.13   -0.75    1.33   0.000   0.200   0.000    0.00
  12.700   19.62   -2.66    1.78   0.000   0.200   0.000    0.00
  12.750   19.25   -4.35    1.12   0.000   0.200   0.000    0.00
  12.800   19.60   -3.93    0.41   0.000   0.200   0.000    0.00
  12.850   19.24   -6.57   -0.04   0.000   0.200   0.000    0.00
  12.900   18.48   -6.96    0.04   0.000   0.200   0.000    0.00
  12.950   17.96   -6.31    0.31   0.000   0.200   0.000    0.00
  13.000   17.86   -3.40   -0.71   0.000   0.200   0.000    0.00
  13.050   17.97   -3.11   -0.43   0.000   0.200   0.000    0.00
  13.100   18.67   -2.74   -0.74   0.000   0.200   0.000    0.00
  13.150   18.91   -3.45   -0.33   0.000   0.200   0.000    0.00
  13.200   19.72   -0.81    0.39   0.000   0.200   0.000    0.00
  13.250   20.02    1.28   -0.22   0.000   0.200   0.000    0.00
  13.300   19.02    2.83   -1.72   0.000   0.200   0.000    0.00
  13.350   19.80   -3.36   -1.43   0.000   0.200   0.000    0.00
  13.400   19.83   -2.17   -0.58   0.000   0.200   0.000    0.00
  13.450   19.35   -0.81    0.84   0.000   0.200   0.000    0.00
  13.500   18.96    1.44   -0.06   0.000   0.200   0.000    0.00
  13.550   18.79    2.63   -0.32   0.000   0.200   0.000    0.00
  13.600   18.07    1.69    0.39   0.000   0.200   0.000    0.00
  13.650   17.68    0.83    0.60   0.000   0.200   0.000    0.00
  13.700   18.18    2.36    1.74   0.000   0.200   0.000    0.00
  13.750   18.13    2.62    2.14   0.000   0.200   0.000    0.00
  13.800   17.69   -1.20    1.41   0.000   0.200   0.000    0.00
  13.850   17.72   -3.08    2.35   0.000   0.200   0.000    0.00
  13.900   17.39   -2.40    2.95   0.000   0.200   0.000    0.00
  13.950   17.09   -0.16    3.45   0.000   0.200   0.000    0.00
  14.000   17.38    0.59    3.65   0.000   0.200   0.000    0.00
  14.050   16.33   -0.86    4.38   0.000   0.200   0.000    0.00
  14.100   16.52    0.76    3.79   0.000   0.200   0.000    0.00
  14.150   16.44    1.04    3.60   0.000   0.200   0.000    0.00
  14.200   16.59   -2.51    3.43   0.000   0.200   0.000    0.00
  14.250   18.07    0.56    3.84   0.000   0.200   0.000    0.00
  14.300   18.05    0.03    4.46   0.000   0.200   0.000    0.00
  14.350   19.10    1.68    4.16   0.000   0.200   0.000    0.00
  14.400   19.69    2.42    3.49   0.000   0.200   0.000    0.00
  14.450   19.11    4.75    2.95   0.000   0.200   0.000    0.00
  14.500   18.69    6.19    2.87   0.000   0.200   0.000    0.00
  14.550   18.83    2.74    3.13   0.000   0.200   0.000    0.00
  14.600   18.70    2.01    3.26   0.000   0.200   0.000    0.00
  14.650   18.16    0.72    2.30   0.000   0.200   0.000    0.00
  14.700   18.99    1.51    3.70   0.000   0.200   0.000    0.00
  14.750   19.47    1.35    3.59   0.000   0.200   0.000    0.00
  14.800   18.95    0.56    4.29   0.000   0.200   0.000    0.00
  14.850   19.98    1.05    5.06   0.000   0.200   0.000    0.00
  14.900   20.38   -0.05    5.18   0.000   0.200   0.000    0.00
  14.950   20.14   -0.02    5.19   0.000   0.200   0.000    0.00
  15.000   19.69   -1.22    5.13   0.000   0.200   0.000    0.00
  15.050   19.91   -0.64    4.49   0.000   0.200   0.000    0.00
  15.100   20.24    0.20    3.85   0.000   0.200   0.000    0.00
  15.150   20.88   -1.74    3.63   0.000   0.200   0.000    0.00
  15.200   20.89   -2.78    3.51   0.000   0.200   0.000    0.00
  15.250   20.27   -0.58    4.48   0.000   0.200   0.000    0.00
  15.300   19.90   -1.87    3.67   0.000   0.200   0.000    0.00
  15.350   19.98   -3.20    2.78   0.000   0.200   0.000    0.00
  15.400   19.62   -3.54    2.75   0.000   0.200   0.000    0.00
  15.450   20.11    0.70    2.63   0.000   0.200   0.000    0.00
  15.500   20.84   -0.66    2.97   0.000   0.200   0.000    0.00
  15.550   20.48    2.84    3.30   0.000   0.200   0.000    0.00
  15.600   19.68    1.22    2.12   0.000   0.200   0.000    0.00
  15.650   19.21   -1.33    2.20   0.000   0.200   0.000    0.00
  15.700   18.82   -2.10    3.54   0.000   0.200   0.000    0.00
  15.750   19.45    0.86    4.25   0.000   0.200   0.000    0.00
  15.800   19.75    1.46    3.54   0.000   0.200   0.000    0.00
  15.850   19.92    1.71    3.00   0.000   0.200   0.000    0.00
  15.900   19.74    3.75    3.49   0.000   0.200   0.000    0.00
  15.950   20.01    4.08    3.35   0.000   0.200   0.000    0.00
  16.000   21.53    5.99    2.16   0.000   0.200   0.000    0.00
  16.050   21.35    6.15    3.59   0.000   0.200   0.000    0.00
  16.100   21.57    4.27    3.35   0.000   0.200   0.000    0.00
  16.150   20.93    2.80    3.31   0.000   0.200   0.000    0.00
  16.200   20.60    1.34    3.22   0.000   0.200   0.000    0.00
  16.250   19.47    2.18    3.72   0.000   0.200   0.000    0.00
  16.300   19.97    2.39    4.03   0.000   0.200   0.000    0.00
  16.350   20.15    4.18    4.30   0.000   0.200   0.000    0.00
  16.400   19.21    1.64    4.79   0.000   0.200   0.000    0.00
  16.450   18.51    2.58    3.95   0.000   0.200   0.000    0.00
  16.500   18.83    4.48    3.23   0.000   0.200   0.000    0.00
  16.550   19.42    4.93    2.02   0.000   0.200   0.000    0.00
  16.600   20.02    3.20    1.15   0.000   0.200   0.000    0.00
  16.650   20.71    3.89    1.28   0.000   0.200   0.000    0.00
  16.700   20.76    4.98    0.69   0.000   0.200   0.000    0.00
  16.750   21.10    4.31    1.30   0.000   0.200   0.000    0.00
  16.800   21.28    0.63    1.61   0.000   0.200   0.000    0.00
  16.850   21.18    3.95    2.24   0.000   0.200   0.000    0.00
  16.900   22.47    2.90    0.12   0.000   0.200   0.000    0.00
  16.950   23.04    2.39    0.37   0.000   0.200   0.000    0.00
  17.000   22.80    2.52   -0.10   0.000   0.200   0.000    0.00
  17.050   22.48    2.71    0.05   0.000   0.200   0.000    0.00
  17.100   22.93    0.35   -0.02   0.000   0.200   0.000    0.00
  17.150   22.81    1.06    0.03   0.000   0.200   0.000    0.00
  17.200   23.28   -1.66    0.88   0.000   0.200   0.000    0.00
  17.250   23.43   -3.16    0.90   0.000   0.200   0.000    0.00
  17.300   23.52   -3.88    0.99   0.000   0.200   0.000    0.00
  17.350   23.10   -5.28    1.18   0.000   0.200   0.000    0.00
  17.400   22.50   -4.10    0.78   0.000   0.200   0.000    0.00
  17.450   21.70   -5.87    1.36   0.000   0.200   0.000    0.00
  17.500   22.52   -6.19    1.86   0.000   0.200   0.000    0.00
  17.550   22.62   -7.25    2.16   0.000   0.200   0.000    0.00
  17.600   22.59  -10.21    1.69   0.000   0.200   0.000    0.00
  17.650   23.05  -11.82    1.67   0.000   0.200   0.000    0.00
  17.700   23.79  -11.99    1.40   0.000   0.200   0.000    0.00
  17.750   22.71  -11.52    0.76   0.000   0.200   0.000    0.00
  17.800   23.79  -10.96    0.31   0.000   0.200   0.000    0.00
  17.850   24.15   -8.04   -0.09   0.000   0.200   0.000    0.00
  17.900   24.53   -8.86    0.96   0.000   0.200   0.000    0.00
  17.950   24.10   -7.75    0.40   0.000   0.200   0.000    0.00
  18.000   24.81   -8.25    0.16   0.000   0.200   0.000    0.00
  18.050   25.22   -9.77    0.76   0.000   0.200   0.000    0.00
  18.100   24.97  -10.43   -0.36   0.000   0.200   0.000    0.00
  18.150   24.61  -10.64   -0.77   0.000   0.200   0.000    0.00
  18.200   24.70   -9.88   -1.05   0.000   0.200   0.000    0.00
  18.250   24.39  -10.33   -0.33   0.000   0.200   0.000    0.00
  18.300   24.12   -9.93   -1.22   0.000   0.200   0.000    0.00
  18.350   24.45  -10.71   -1.41   0.000   0.200   0.000    0.00
  18.400   24.94  -10.11   -1.39   0.000   0.200   0.000    0.00
  18.450   24.54   -9.06   -0.82   0.000   0.200   0.000    0.00
  18.500   25.32   -8.69   -0.36   0.000   0.200   0.000    0.00
  18.550   24.73  -10.05   -0.69   0.000   0.200   0.000    0.00
  18.600   24.98  -10.78   -0.50   0.000   0.200   0.000    0.00
  18.650   24.24   -9.23   -0.56   0.000   0.200   0.000    0.00
  18.700   23.82  -10.63   -0.82   0.000   0.200   0.000    0.00
  18.750   23.77   -9.32   -1.38   0.000   0.200   0.000    0.00
  18.800   23.52  -11.42   -2.27   0.000   0.200   0.000    0.00
  18.850   23.91  -10.94   -2.68   0.000   0.200   0.000    0.00
  18.900   24.18  -11.36   -1.94   0.000   0.200   0.000    0.00
  18.950   24.39   -8.74   -1.43   0.000   0.200   0.000    0.00
  19.000   24.54   -8.35   -0.98   0.000   0.200   0.000    0.00
  19.050   23.91   -8.34   -1.92   0.000   0.200   0.000    0.00
  19.100   23.74   -9.08   -1.77   0.000   0.200   0.000    0.00
  19.150   24.25  -10.72   -2.32   0.000   0.200   0.000    0.00
  19.200   24.06  -10.13   -2.40   0.000   0.200   0.000    0.00
  19.250   22.86   -8.07   -2.24   0.000   0.200   0.000    0.00
  19.300   23.06   -9.42   -3.80   0.000   0.200   0.000    0.00
  19.350   23.23   -7.31   -2.93   0.000   0.200   0.000    0.00
  19.400   23.35   -9.75   -2.85   0.000   0.200   0.000    0.00
  19.450   22.65  -11.63   -3.09   0.000   0.200   0.000    0.00
  19.500   22.14   -8.52   -4.83   0.000   0.200   0.000    0.00
  19.550   22.01   -8.82   -5.11   0.000   0.200   0.000    0.00
  19.600   21.66   -8.68   -4.88   0.000   0.200   0.000    0.00
  19.650   21.16   -5.84   -4.60   0.000   0.200   0.000    0.00
  19.700   20.80   -4.55   -4.83   0.000   0.200   0.000    0.00
  19.750   20.50   -3.75   -4.88   0.000   0.200   0.000    0.00
  19.800   21.47   -6.80   -3.75   0.000   0.200   0.000    0.00
  19.850   21.97   -4.99   -3.67   0.000   0.200   0.000    0.00
  19.900   22.78   -4.06   -3.99   0.000   0.200   0.000    0.00
  19.950   22.85   -5.20   -4.12   0.000   0.200   0.000    0.00
  20.000   22.44   -2.84   -3.35   0.000   0.200   0.000    0.00
  20.050   22.09   -3.09   -3.24   0.000   0.200   0.000    0.00
  20.100   22.20   -2.02   -3.95   0.000   0.200   0.000    0.00
  20.150   21.50   -0.89   -4.33   0.000   0.200   0.000    0.00
  20.200   20.63   -1.00   -3.95   0.000   0.200   0.000    0.00
  20.250   20.14   -0.99   -3.90   0.000   0.200   0.000    0.00
  20.300   19.43    0.43   -3.98   0.000   0.200   0.000    0.00
  20.350   19.53    3.05   -4.30   0.000   0.200   0.000    0.00
  20.400   19.68    0.62   -4.03   0.000   0.200   0.000    0.00
  20.450   20.22   -1.29   -3.26   0.000   0.200   0.000    0.00
  20.500   20.65   -2.25   -3.33   0.000   0.200   0.000    0.00
  20.550   21.39   -1.88   -2.15   0.000   0.200   0.000    0.00
  20.600   21.50   -1.58   -2.45   0.000   0.200   0.000    0.00
  20.650   20.96   -3.22   -2.46   0.000   0.200   0.000    0.00
  20.700   20.48   -4.07   -4.15   0.000   0.200   0.000    0.00
  20.750   20.98   -4.11   -3.95   0.000   0.200   0.000    0.00
  20.800   21.15   -3.44   -3.86   0.000   0.200   0.000    0.00
  20.850   21.06   -5.10   -3.57   0.000   0.200   0.000    0.00
  20.900   20.77   -3.50   -2.78   0.000   0.200   0.000    0.00
  20.950   21.22   -4.87   -3.33   0.000   0.200   0.000    0.00
  21.000   21.38   -4.51   -3.10   0.000   0.200   0.000    0.00
  21.050   22.40   -3.23   -2.45   0.000   0.200   0.000    0.00
  21.100   23.38   -3.00   -2.73   0.000   0.200   0.000    0.00
  21.150   23.09   -2.76   -2.64   0.000   0.200   0.000    0.00
  21.200   22.87   -5.98   -1.98   0.000   0.200   0.000    0.00
  21.250   23.04   -4.56   -1.88   0.000   0.200   0.000    0.00
  21.300   24.70   -3.20   -1.14   0.000   0.200   0.000    0.00
  21.350   24.73   -5.03   -0.51   0.000   0.200   0.000    0.00
  21.400   25.25   -5.51   -0.23   0.000   0.200   0.000    0.00
  21.450   24.88   -4.30   -0.35   0.000   0.200   0.000    0.00
  21.500   24.98   -5.10    0.16   0.000   0.200   0.000    0.00
  21.550   24.39   -5.87   -1.57   0.000   0.200   0.000    0.00
  21.600   24.75   -7.23   -1.47   0.000   0.200   0.000    0.00
  21.650   23.47   -7.62   -0.71   0.000   0.200   0.000    0.00
  21.700   23.72  -10.15   -1.41   0.000   0.200   0.000    0.00
  21.750   23.81  -11.32   -2.49   0.000   0.200   0.000    0.00
  21.800   24.33   -9.53   -2.48   0.000   0.200   0.000    0.00
  21.850   24.76  -10.84   -2.07   0.000   0.200   0.000    0.00
  21.900   25.16  -11.43   -1.96   0.000   0.200   0.000    0.00
  21.950   24.96   -8.70   -1.60   0.000   0.200   0.000    0.00
  22.000   25.23   -7.93   -1.07   0.000   0.200   0.000    0.00
  22.050   25.66   -8.09   -1.01   0.000   0.200   0.000    0.00
  22.100   25.46  -10.78   -0.56   0.000   0.200   0.000    0.00
  22.150   25.54  -11.67   -0.90   0.000   0.200   0.000    0.00
  22.200   24.47  -10.04   -0.46   0.000   0.200   0.000    0.00
  22.250   24.07   -7.92   -0.42   0.000   0.200   0.000    0.00
  22.300   25.01   -8.30   -0.56   0.000   0.200   0.000    0.00
  22.350   25.38   -8.99   -0.63   0.000   0.200   0.000    0.00
  22.400   25.88  -10.28    0.00   0.000   0.200   0.000    0.00
  22.450   25.27   -8.81    0.08   0.000   0.200   0.000    0.00
  22.500   25.36   -8.41   -0.06   0.000   0.200   0.000    0.00
  22.550   25.14   -8.44    0.56   0.000   0.200   0.000    0.00
  22.600   24.54   -9.99    0.26   0.000   0.200   0.000    0.00
  22.650   25.24  -10.33    0.91   0.000   0.200   0.000    0.00
  22.700   26.16  -10.47    0.98   0.000   0.200   0.000    0.00