! This hub-height wind-speed file was generated by TurbSim (v2.00.07a-bjj, 14-Jun-2016) on 17-Apr-2024 at 00:34:00.
!
! The requested statistics for this data were:
!    Mean Total Wind Speed =   20.000 m/s
!    Turbulence Intensity  =   14.420%
!
!   Time  HorSpd  WndDir  VerSpd  HorShr  VerShr  LnVShr  GstSpd
!  (sec)   (m/s)   (deg)   (m/s)     (-)     (-)     (-)   (m/s)
   0.000   19.74   15.39   -1.53   0.000   0.200   0.000    0.00
   0.050   19.84   14.83   -1.90   0.000   0.200   0.000    0.00
   0.100   20.46   16.38   -3.33   0.000   0.200   0.000    0.00
   0.150   19.89   16.48   -3.09   0.000   0.200   0.000    0.00
   0.200   19.64   16.00   -2.56   0.000   0.200   0.000    0.00
   0.250   19.55   13.69   -2.92   0.000   0.200   0.000    0.00
   0.300   20.58   17.84   -3.60   0.000   0.200   0.000    0.00
   0.350   21.30   16.77   -3.67   0.000   0.200   0.000    0.00
   0.400   20.58   17.68   -4.44   0.000   0.200   0.000    0.00
   0.450   20.09   19.86   -4.22   0.000   0.200   0.000    0.00
   0.500   20.04   19.60   -3.10   0.000   0.200   0.000    0.00
   0.550   19.32   17.70   -3.96   0.000   0.200   0.000    0.00
   0.600   18.52   16.39   -3.62   0.000   0.200   0.000    0.00
   0.650   18.67   16.51   -2.90   0.000   0.200   0.000    0.00
   0.700   18.92   15.87   -1.78   0.000   0.200   0.000    0.00
   0.750   19.56   12.16   -1.39   0.000   0.200   0.000    0.00
   0.800   18.96   15.22   -1.65   0.000   0.200   0.000    0.00
   0.850   18.12   15.59   -2.24   0.000   0.200   0.000    0.00
   0.900   18.59   12.75   -2.72   0.000   0.200   0.000    0.00
   0.950   18.40   10.72   -1.90   0.000   0.200   0.000    0.00
   1.000   18.58   12.02   -1.23   0.000   0.200   0.000    0.00
   1.050   17.80   11.92   -1.47   0.000   0.200   0.000    0.00
   1.100   17.84   11.51   -1.26   0.000   0.200   0.000    0.00
   1.150   18.50    9.79   -2.02   0.000   0.200   0.000    0.00
   1.200   18.54    7.69   -3.31   0.000   0.200   0.000    0.00
   1.250   18.48    7.06   -3.87   0.000   0.200   0.000    0.00
   1.300   17.69    4.53   -3.57   0.000   0.200   0.000    0.00
   1.350   18.70    7.54   -3.80   0.000   0.200   0.000    0.00
   1.400   18.29    7.94   -4.37   0.000   0.200   0.000    0.00
   1.450   18.13   12.00   -3.93   0.000   0.200   0.000    0.00
   1.500   18.05   14.18   -3.08   0.000   0.200   0.000    0.00
   1.550   18.58   11.58   -4.13   0.000   0.200   0.000    0.00
   1.600   18.23    7.95   -5.06   0.000   0.200   0.000    0.00
   1.650   18.61    6.99   -5.38   0.000   0.200   0.000    0.00
   1.700   19.24    9.44   -4.59   0.000   0.200   0.000    0.00
   1.750   19.05   10.10   -4.60   0.000   0.200   0.000    0.00
   1.800   18.39   10.88   -4.04   0.000   0.200   0.000    0.00
   1.850   17.89    9.52   -3.48   0.000   0.200   0.000    0.00
   1.900   17.87   11.96   -4.31   0.000   0.200   0.000    0.00
   1.950   17.46   11.23   -4.41   0.000   0.200   0.000    0.00
   2.000   17.35    9.93   -3.88   0.000   0.200   0.000    0.00
   2.050   17.20   10.69   -4.13   0.000   0.200   0.000    0.00
   2.100   16.74   12.31   -4.08   0.000   0.200   0.000    0.00
   2.150   16.15   12.57   -3.97   0.000   0.200   0.000    0.00
   2.200   16.25    9.05   -3.55   0.000   0.200   0.000    0.00
   2.250   15.82    8.70   -3.13   0.000   0.200   0.000    0.00
   2.300   15.86   11.53   -3.11   0.000   0.200   0.000    0.00
   2.350   16.06   11.44   -3.22   0.000   0.200   0.000    0.00
   2.400   16.26   10.65   -4.04   0.000   0.200   0.000    0.00
   2.450   17.36   13.73   -4.26   0.000   0.200   0.000    0.00
   2.500   16.86   14.37   -4.77   0.000   0.200   0.000    0.00
   2.550   16.04   14.56   -4.68   0.000   0.200   0.000    0.00
   2.600   16.18   17.42   -4.87   0.000   0.200   0.000    0.00
   2.650   16.19   18.48   -5.28   0.000   0.200   0.000    0.00
   2.700   16.13   12.61   -4.49   0.000   0.200   0.000    0.00
   2.750   16.47   14.26   -3.83   0.000   0.200   0.000    0.00
   2.800   16.78   13.60   -3.46   0.000   0.200   0.000    0.00
   2.850   16.24   12.38   -3.28   0.000   0.200   0.000    0.00
   2.900   16.32   16.56   -2.92   0.000   0.200   0.000    0.00
   2.950   17.03   13.80   -4.03   0.000   0.200   0.000    0.00
   3.000   17.97   13.02   -3.78   0.000   0.200   0.000    0.00
   3.050   18.69   15.63   -3.10   0.000   0.200   0.000    0.00
   3.100   19.00   15.57   -3.22   0.000   0.200   0.000    0.00
   3.150   19.87   16.90   -3.20   0.000   0.200   0.000    0.00
   3.200   19.55   16.45   -2.69   0.000   0.200   0.000    0.00
   3.250   19.29   15.46   -3.05   0.000   0.200   0.000    0.00
   3.300   19.32   12.06   -3.01   0.000   0.200   0.000    0.00
   3.350   19.81   12.21   -2.88   0.000   0.200   0.000    0.00
   3.400   20.55    9.98   -2.70   0.000   0.200   0.000    0.00
   3.450   20.41   11.39   -2.45   0.000   0.200   0.000    0.00
   3.500   20.47   11.63   -2.06   0.000   0.200   0.000    0.00
   3.550   20.44   13.04   -1.78   0.000   0.200   0.000    0.00
   3.600   19.92   13.43   -0.13   0.000   0.200   0.000    0.00
   3.650   20.58   14.58   -0.64   0.000   0.200   0.000    0.00
   3.700   20.74   16.33   -1.52   0.000   0.200   0.000    0.00
   3.750   21.37   17.77   -0.96   0.000   0.200   0.000    0.00
   3.800   20.68   20.16   -0.16   0.000   0.200   0.000    0.00
   3.850   21.03   17.27    0.56   0.000   0.200   0.000    0.00
   3.900   21.70   18.38    0.18   0.000   0.200   0.000    0.00
   3.950   21.93   20.15    0.02   0.000   0.200   0.000    0.00
   4.000   21.79   17.96    0.20   0.000   0.200   0.000    0.00
   4.050   21.72   16.49    2.05   0.000   0.200   0.000    0.00
   4.100   22.07   15.10    2.31   0.000   0.200   0.000    0.00
   4.150   20.88   15.47    1.82   0.000   0.200   0.000    0.00
   4.200   20.76   17.06    0.39   0.000   0.200   0.000    0.00
   4.250   21.58   17.92   -0.48   0.000   0.200   0.000    0.00
   4.300   21.16   18.50    0.11   0.000   0.200   0.000    0.00
   4.350   21.57   19.31   -0.65   0.000   0.200   0.000    0.00
   4.400   21.33   20.72   -0.77   0.000   0.200   0.000    0.00
   4.450   21.24   19.81   -1.40   0.000   0.200   0.000    0.00
   4.500   21.14   24.34   -0.30   0.000   0.200   0.000    0.00
   4.550   21.97   27.49    0.46   0.000   0.200   0.000    0.00
   4.600   22.05   26.05    1.01   0.000   0.200   0.000    0.00
   4.650   22.01   25.44    0.25   0.000   0.200   0.000    0.00
   4.700   22.63   24.49    0.24   0.000   0.200   0.000    0.00
   4.750   22.75   22.36    0.32   0.000   0.200   0.000    0.00
   4.800   22.74   22.14    0.69   0.000   0.200   0.000    0.00
   4.850   22.81   21.64    0.85   0.000   0.200   0.000    0.00
   4.900   22.38   23.44   -0.35   0.000   0.200   0.000    0.00
   4.950   22.47   24.57   -1.42   0.000   0.200   0.000    0.00
   5.000   21.77   25.67   -2.00   0.000   0.200   0.000    0.00
   5.050   22.77   26.24   -1.88   0.000   0.200   0.000    0.00
   5.100   23.29   25.72   -1.84   0.000   0.200   0.000    0.00
   5.150   23.80   24.05   -1.02   0.000   0.200   0.000    0.00
   5.200   23.43   22.66   -0.61   0.000   0.200   0.000    0.00
   5.250   23.03   24.18   -0.74   0.000   0.200   0.000    0.00
   5.300   22.37   24.65   -0.43   0.000   0.200   0.000    0.00
   5.350   23.04   23.13    0.43   0.000   0.200   0.000    0.00
   5.400   23.06   24.16    0.42   0.000   0.200   0.000    0.00
   5.450   22.96   23.05   -0.10   0.000   0.200   0.000    0.00
   5.500   22.40   21.40   -0.81   0.000   0.200   0.000    0.00
   5.550   22.03   24.08   -0.55   0.000   0.200   0.000    0.00
   5.600   22.29   23.54   -0.81   0.000   0.200   0.000    0.00
   5.650   22.84   24.92   -1.29   0.000   0.200   0.000    0.00
   5.700   22.19   22.91   -0.55   0.000   0.200   0.000    0.00
   5.750   21.52   23.65   -0.60   0.000   0.200   0.000    0.00
   5.800   21.38   23.12   -1.06   0.000   0.200   0.000    0.00
   5.850   21.73   23.71   -2.00   0.000   0.200   0.000    0.00
   5.900   22.13   22.79   -1.67   0.000   0.200   0.000    0.00
   5.950   22.28   20.04   -1.72   0.000   0.200   0.000    0.00
   6.000   23.43   19.25   -0.91   0.000   0.200   0.000    0.00
   6.050   24.25   21.85   -0.87   0.000   0.200   0.000    0.00
   6.100   24.66   19.99   -0.42   0.000   0.200   0.000    0.00
   6.150   24.29   19.45   -0.69   0.000   0.200   0.000    0.00
   6.200   25.43   20.54   -1.27   0.000   0.200   0.000    0.00
   6.250   24.45   21.11   -1.15   0.000   0.200   0.000    0.00
   6.300   23.79   19.97   -1.20   0.000   0.200   0.000    0.00
   6.350   23.80   18.99   -1.04   0.000   0.200   0.000    0.00
   6.400   23.41   19.73   -0.39   0.000   0.200   0.000    0.00
   6.450   23.21   19.56   -1.10   0.000   0.200   0.000    0.00
   6.500   22.75   19.92   -2.02   0.000   0.200   0.000    0.00
   6.550   22.99   18.22   -1.06   0.000   0.200   0.000    0.00
   6.600   23.17   18.44   -0.52   0.000   0.200   0.000    0.00
   6.650   22.98   17.44    0.68   0.000   0.200   0.000    0.00
   6.700   22.08   16.92    0.08   0.000   0.200   0.000    0.00
   6.750   21.82   15.09    0.04   0.000   0.200   0.000    0.00
   6.800   22.41   14.61    0.29   0.000   0.200   0.000    0.00
   6.850   22.27   17.92    0.67   0.000   0.200   0.000    0.00
   6.900   21.93   15.57    0.18   0.000   0.200   0.000    0.00
   6.950   22.50   17.11    0.15   0.000   0.200   0.000    0.00
   7.000   22.76   17.26   -0.58   0.000   0.200   0.000    0.00
   7.050   22.98   15.42   -1.16   0.000   0.200   0.000    0.00
   7.100   22.45   15.57   -0.57   0.000   0.200   0.000    0.00
   7.150   22.42   15.47   -0.25   0.000   0.200   0.000    0.00
   7.200   22.61   15.57   -0.89   0.000   0.200   0.000    0.00
   7.250   23.64   17.01   -1.97   0.000   0.200   0.000    0.00
   7.300   24.35   14.17   -2.57   0.000   0.200   0.000    0.00
   7.350   24.78   12.70   -1.77   0.000   0.200   0.000    0.00
   7.400   24.66   11.44   -2.12   0.000   0.200   0.000    0.00
   7.450   25.58   13.97   -2.22   0.000   0.200   0.000    0.00
   7.500   25.68   13.75   -2.17   0.000   0.200   0.000    0.00
   7.550   26.46   13.77   -2.29   0.000   0.200   0.000    0.00
   7.600   26.21   15.18   -2.70   0.000   0.200   0.000    0.00
   7.650   27.29   14.21   -1.23   0.000   0.200   0.000    0.00
   7.700   27.22   12.68   -0.25   0.000   0.200   0.000    0.00
   7.750   26.27    8.33   -0.79   0.000   0.200   0.000    0.00
   7.800   26.56    7.52   -1.74   0.000   0.200   0.000    0.00
   7.850   26.43    7.74   -0.55   0.000   0.200   0.000    0.00
   7.900   26.21    8.35   -0.18   0.000   0.200   0.000    0.00
   7.950   25.92    7.30   -0.47   0.000   0.200   0.000    0.00
   8.000   26.32    7.34    0.73   0.000   0.200   0.000    0.00
   8.050   25.18    9.50    0.86   0.000   0.200   0.000    0.00
   8.100   24.76    9.00    1.45   0.000   0.200   0.000    0.00
   8.150   24.13    8.52    0.69   0.000   0.200   0.000    0.00
   8.200   24.23   10.27    0.62   0.000   0.200   0.000    0.00
   8.250   24.11   11.59    1.11   0.000   0.200   0.000    0.00
   8.300   23.54    9.50    0.58   0.000   0.200   0.000    0.00
   8.350   24.61    9.82   -0.95   0.000   0.200   0.000    0.00
   8.400   25.00    8.57    0.11   0.000   0.200   0.000    0.00
   8.450   25.12    8.65    0.30   0.000   0.200   0.000    0.00
   8.500   25.19    9.34   -0.24   0.000   0.200   0.000    0.00
   8.550   24.70   12.41   -0.93   0.000   0.200   0.000    0.00
   8.600   24.50   11.47   -1.50   0.000   0.200   0.000    0.00
   8.650   25.03   10.07   -1.39   0.000   0.200   0.000    0.00
   8.700   24.53   11.43   -0.22   0.000   0.200   0.000    0.00
   8.750   25.17    9.94   -0.89   0.000   0.200   0.000    0.00
   8.800   25.10    5.36   -1.90   0.000   0.200   0.000    0.00
   8.850   25.24    4.59   -1.92   0.000   0.200   0.000    0.00
   8.900   24.68    6.30   -2.43   0.000   0.200   0.000    0.00
   8.950   23.57    9.03   -3.22   0.000   0.200   0.000    0.00
   9.000   24.38   10.30   -2.91   0.000   0.200   0.000    0.00
   9.050   24.52   11.05   -2.57   0.000   0.200   0.000    0.00
   9.100   24.09    8.86   -2.87   0.000   0.200   0.000    0.00
   9.150   23.51   10.23   -2.54   0.000   0.200   0.000    0.00
   9.200   22.97   12.41   -2.76   0.000   0.200   0.000    0.00
   9.250   22.63   11.51   -2.12   0.000   0.200   0.000    0.00
   9.300   22.28   10.92   -2.48   0.000   0.200   0.000    0.00
   9.350   22.71    9.46   -1.87   0.000   0.200   0.000    0.00
   9.400   23.16    8.91   -2.40   0.000   0.200   0.000    0.00
   9.450   23.95    7.70   -3.27   0.000   0.200   0.000    0.00
   9.500   23.90    5.84   -3.04   0.000   0.200   0.000    0.00
   9.550   23.29    5.10   -4.20   0.000   0.200   0.000    0.00
   9.600   23.06    6.90   -4.38   0.000   0.200   0.000    0.00
   9.650   23.48    7.04   -3.47   0.000   0.200   0.000    0.00
   9.700   24.00    9.94   -3.30   0.000   0.200   0.000    0.00
   9.750   24.84   10.72   -3.25   0.000   0.200   0.000    0.00
   9.800   24.20    9.92   -3.18   0.000   0.200   0.000    0.00
   9.850   23.25    9.73   -3.17   0.000   0.200   0.000    0.00
   9.900   24.00    8.88   -3.80   0.000   0.200   0.000    0.00
   9.950   23.50    9.30   -4.60   0.000   0.200   0.000    0.00
  10.000   23.25    7.29   -5.30   0.000   0.200   0.000    0.00
  10.050   23.74    8.25   -4.99   0.000   0.200   0.000    0.00
  10.100   23.06   10.31   -4.74   0.000   0.200   0.000    0.00
  10.150   23.48    9.00   -5.29   0.000   0.200   0.000    0.00
  10.200   23.85    9.25   -5.89   0.000   0.200   0.000    0.00
  10.250   23.53    9.07   -5.77   0.000   0.200   0.000    0.00
  10.300   23.50   11.04   -5.43   0.000   0.200   0.000    0.00
  10.350   23.70    9.62   -5.60   0.000   0.200   0.000    0.00
  10.400   23.87    9.58   -6.31   0.000   0.200   0.000    0.00
  10.450   23.48   11.51   -4.66   0.000   0.200   0.000    0.00
  10.500   22.83   12.20   -4.36   0.000   0.200   0.000    0.00
  10.550   23.01   10.86   -3.90   0.000   0.200   0.000    0.00
  10.600   22.58    9.79   -3.18   0.000   0.200   0.000    0.00
  10.650   22.22   10.82   -3.13   0.000   0.200   0.000    0.00
  10.700   22.05   10.22   -2.74   0.000   0.200   0.000    0.00
  10.750   22.34    8.07   -2.61   0.000   0.200   0.000    0.00
  10.800   23.16    8.94   -3.97   0.000   0.200   0.000    0.00
  10.850   23.43   10.79   -4.19   0.000   0.200   0.000    0.00
  10.900   23.16    8.25   -3.38   0.000   0.200   0.000    0.00
  10.950   22.84    6.26   -3.99   0.000   0.200   0.000    0.00
  11.000   23.31    6.87   -3.48   0.000   0.200   0.000    0.00
  11.050   24.08    5.32   -4.03   0.000   0.200   0.000    0.00
  11.100   24.80    5.86   -3.37   0.000   0.200   0.000    0.00
  11.150   24.96    4.49   -3.30   0.000   0.200   0.000    0.00
  11.200   25.33    6.45   -3.59   0.000   0.200   0.000    0.00
  11.250   25.45    5.95   -4.39   0.000   0.200   0.000    0.00
  11.300   25.82    5.71   -4.06   0.000   0.200   0.000    0.00
  11.350   25.90    5.04   -3.15   0.000   0.200   0.000    0.00
  11.400   25.50    5.42   -2.59   0.000   0.200   0.000    0.00
  11.450   25.87    7.14   -3.59   0.000   0.200   0.000    0.00
  11.500   26.29    9.39   -2.34   0.000   0.200   0.000    0.00
  11.550   26.24    9.44   -1.57   0.000   0.200   0.000    0.00
  11.600   25.88    8.57   -0.92   0.000   0.200   0.000    0.00
  11.650   26.15    9.08   -1.98   0.000   0.200   0.000    0.00
  11.700   26.76    6.62   -2.70   0.000   0.200   0.000    0.00
  11.750   27.24    5.38   -3.41   0.000   0.200   0.000    0.00
  11.800   27.58    4.64   -2.62   0.000   0.200   0.000    0.00
  11.850   27.92    5.92   -1.68   0.000   0.200   0.000    0.00
  11.900   27.69    7.32   -1.61   0.000   0.200   0.000    0.00
  11.950   27.34    6.31   -1.15   0.000   0.200   0.000    0.00
  12.000   27.44    5.14   -1.27   0.000   0.200   0.000    0.00
  12.050   26.88    3.06   -2.98   0.000   0.200   0.000    0.00
  12.100   26.87    2.66   -2.20   0.000   0.200   0.000    0.00
  12.150   27.02    3.07   -2.26   0.000   0.200   0.000    0.00
  12.200   26.31    2.98   -3.48   0.000   0.200   0.000    0.00
  12.250   25.80    4.78   -3.95   0.000   0.200   0.000    0.00
  12.300   26.29    3.93   -4.11   0.000   0.200   0.000    0.00
  12.350   26.04    3.86   -4.30   0.000   0.200   0.000    0.00
  12.400   25.60    2.51   -4.11   0.000   0.200   0.000    0.00
  12.450   24.77    3.60   -4.57   0.000   0.200   0.000    0.00
  12.500   25.56    5.00   -4.74   0.000   0.200   0.000    0.00
  12.550   25.85    2.59   -4.05   0.000   0.200   0.000    0.00
  12.600   25.37    2.24   -4.63   0.000   0.200   0.000    0.00
  12.650   26.43    0.70   -3.04   0.000   0.200   0.000    0.00
  12.700   26.90    1.42   -3.58   0.000   0.200   0.000    0.00
  12.750   26.01    2.25   -2.91   0.000   0.200   0.000    0.00
  12.800   26.53   -0.36   -3.32   0.000   0.200   0.000    0.00
  12.850   27.48   -0.93   -3.48   0.000   0.200   0.000    0.00
  12.900   27.22   -1.83   -4.41   0.000   0.200   0.000    0.00
  12.950   26.69   -1.51   -4.91   0.000   0.200   0.000    0.00
  13.000   27.12   -1.20   -3.85   0.000   0.200   0.000    0.00
  13.050   26.90   -0.97   -3.87   0.000   0.200   0.000    0.00
  13.100   26.16   -2.94   -4.06   0.000   0.200   0.000    0.00
  13.150   25.66   -2.63   -3.30   0.000   0.200   0.000    0.00
  13.200   25.30   -2.99   -3.00   0.000   0.200   0.000    0.00
  13.250   24.76   -0.40   -2.84   0.000   0.200   0.000    0.00
  13.300   25.76    0.53   -3.45   0.000   0.200   0.000    0.00
  13.350   25.98   -1.65   -3.63   0.000   0.200   0.000    0.00
  13.400   26.44   -2.43   -3.71   0.000   0.200   0.000    0.00
  13.450   26.97   -3.93   -4.25   0.000   0.200   0.000    0.00
  13.500   26.61   -2.76   -4.18   0.000   0.200   0.000    0.00
  13.550   27.03   -1.53   -4.87   0.000   0.200   0.000    0.00
  13.600   26.54   -4.33   -4.94   0.000   0.200   0.000    0.00
  13.650   26.26   -1.29   -4.50   0.000   0.200   0.000    0.00
  13.700   26.22   -1.73   -4.75   0.000   0.200   0.000    0.00
  13.750   26.05   -2.32   -4.79   0.000   0.200   0.000    0.00
  13.800   25.92   -1.49   -4.16   0.000   0.200   0.000    0.00
  13.850   25.43   -2.02   -4.10   0.000   0.200   0.000    0.00
  13.900   26.03   -2.72   -4.52   0.000   0.200   0.000    0.00
  13.950   25.70   -0.78   -4.36   0.000   0.200   0.000    0.00
  14.000   25.67    2.21   -4.22   0.000   0.200   0.000    0.00
  14.050   25.06    1.28   -3.77   0.000   0.200   0.000    0.00
  14.100   24.90    2.37   -4.26   0.000   0.200   0.000    0.00
  14.150   24.67    4.75   -3.90   0.000   0.200   0.000    0.00
  14.200   23.58    5.57   -4.81   0.000   0.200   0.000    0.00
  14.250   22.85    4.99   -5.05   0.000   0.200   0.000    0.00
  14.300   22.45    5.50   -5.57   0.000   0.200   0.000    0.00
  14.350   22.88    6.23   -5.09   0.000   0.200   0.000    0.00
  14.400   23.96    4.07   -4.60   0.000   0.200   0.000    0.00
  14.450   24.29    1.97   -4.86   0.000   0.200   0.000    0.00
  14.500   24.45    1.89   -4.14   0.000   0.200   0.000    0.00
  14.550   23.52    0.84   -4.10   0.000   0.200   0.000    0.00
  14.600   23.69   -2.17   -3.76   0.000   0.200   0.000    0.00
  14.650   23.34   -3.43   -4.07   0.000   0.200   0.000    0.00
  14.700   22.54   -3.99   -3.82   0.000   0.200   0.000    0.00
  14.750   23.95   -3.27   -3.93   0.000   0.200   0.000    0.00
  14.800   24.12   -4.29   -4.19   0.000   0.200   0.000    0.00
  14.850   24.01   -1.74   -3.37   0.000   0.200   0.000    0.00
  14.900   24.95   -2.14   -4.45   0.000   0.200   0.000    0.00
  14.950   25.14    0.39   -4.95   0.000   0.200   0.000    0.00
  15.000   24.78    0.51   -4.09   0.000   0.200   0.000    0.00
  15.050   24.88    3.55   -3.80   0.000   0.200   0.000    0.00
  15.100   24.66    4.77   -2.71   0.000   0.200   0.000    0.00
  15.150   23.89    3.62   -1.98   0.000   0.200   0.000    0.00
  15.200   23.68    5.13   -1.72   0.000   0.200   0.000    0.00
  15.250   22.63    6.25   -1.80   0.000   0.200   0.000    0.00
  15.300   22.75    4.63   -2.81   0.000   0.200   0.000    0.00
  15.350   23.19    5.25   -2.48   0.000   0.200   0.000    0.00
  15.400   23.94    4.18   -2.09   0.000   0.200   0.000    0.00
  15.450   24.16    2.06   -2.93   0.000   0.200   0.000    0.00
  15.500   24.14    3.96   -1.36   0.000   0.200   0.000    0.00
  15.550   24.40    5.94   -1.91   0.000   0.200   0.000    0.00
  15.600   24.79    5.34   -1.45   0.000   0.200   0.000    0.00
  15.650   24.75    7.75   -0.99   0.000   0.200   0.000    0.00
  15.700   24.65    7.07   -0.54   0.000   0.200   0.000    0.00
  15.750   25.03    7.82   -0.10   0.000   0.200   0.000    0.00
  15.800   24.78    7.78    0.12   0.000   0.200   0.000    0.00
  15.850   25.03    7.76    1.08   0.000   0.200   0.000    0.00
  15.900   24.56    7.91    0.92   0.000   0.200   0.000    0.00
  15.950   23.66   10.54   -0.20   0.000   0.200   0.000    0.00
  16.000   23.86   11.08   -0.72   0.000   0.200   0.000    0.00
  16.050   24.41   11.07    0.18   0.000   0.200   0.000    0.00
  16.100   23.63   10.11    0.04   0.000   0.200   0.000    0.00
  16.150   23.46    7.97    0.44   0.000   0.200   0.000    0.00
  16.200   23.04    6.47   -0.48   0.000   0.200   0.000    0.00
  16.250   23.86    4.31   -0.62   0.000   0.200   0.000    0.00
  16.300   23.01    4.64    0.39   0.000   0.200   0.000    0.00
  16.350   22.37    9.10    0.85   0.000   0.200   0.000    0.00
  16.400   22.00    9.52    0.62   0.000   0.200   0.000    0.00
  16.450   22.02    9.96    0.57   0.000   0.200   0.000    0.00
  16.500   22.23   11.00    0.23   0.000   0.200   0.000    0.00
  16.550   23.03   12.67    0.84   0.000   0.200   0.000    0.00
  16.600   23.14   11.09    0.45   0.000   0.200   0.000    0.00
  16.650   23.27   11.47   -0.71   0.000   0.200   0.000    0.00
  16.700   23.30   14.16   -1.55   0.000   0.200   0.000    0.00
  16.750   22.64   16.43   -1.21   0.000   0.200   0.000    0.00
  16.800   21.68   14.61   -0.09   0.000   0.200   0.000    0.00
  16.850   21.37   11.39   -0.28   0.000   0.200   0.000    0.00
  16.900   21.65   11.05   -0.00   0.000   0.200   0.000    0.00
  16.950   21.56   10.37   -1.09   0.000   0.200   0.000    0.00
  17.000   21.94   11.52   -0.39   0.000   0.200   0.000    0.00
  17.050   20.99   13.35   -0.80   0.000   0.200   0.000    0.00
  17.100   21.91   10.79   -1.25   0.000   0.200   0.000    0.00
  17.150   22.34   11.78   -1.17   0.000   0.200   0.000    0.00
  17.200   23.22   11.21   -3.01   0.000   0.200   0.000    0.00
  17.250   23.12   10.63   -3.30   0.000   0.200   0.000    0.00
  17.300   22.93   11.98   -3.53   0.000   0.200   0.000    0.00
  17.350   22.75   11.35   -3.67   0.000   0.200   0.000    0.00
  17.400   23.47   12.49   -3.57   0.000   0.200   0.000    0.00
  17.450   23.94   11.72   -3.09   0.000   0.200   0.000    0.00
  17.500   23.45   11.77   -4.69   0.000   0.200   0.000    0.00
  17.550   23.64   12.80   -3.86   0.000   0.200   0.000    0.00
  17.600   23.56   12.75   -3.51   0.000   0.200   0.000    0.00
  17.650   23.12   12.93   -3.39   0.000   0.200   0.000    0.00
  17.700   23.06   12.48   -3.06   0.000   0.200   0.000    0.00
  17.750   23.00   14.56   -2.86   0.000   0.200   0.000    0.00
  17.800   22.11   13.94   -2.75   0.000   0.200   0.000    0.00
  17.850   22.97   13.57   -3.48   0.000   0.200   0.000    0.00
  17.900   23.45   13.07   -2.86   0.000   0.200   0.000    0.00
  17.950   23.34   12.59   -2.66   0.000   0.200   0.000    0.00
  18.000   23.29   12.54   -2.87   0.000   0.200   0.000    0.00
  18.050   23.59   12.38   -2.55   0.000   0.200   0.000    0.00
  18.100   24.30   12.16   -3.26   0.000   0.200   0.000    0.00
  18.150   23.33   10.90   -2.92   0.000   0.200   0.000    0.00
  18.200   21.54   11.46   -2.31   0.000   0.200   0.000    0.00
  18.250   21.47   11.13   -2.92   0.000   0.200   0.000    0.00
  18.300   21.24    9.65   -2.97   0.000   0.200   0.000    0.00
  18.350   20.64   10.26   -3.20   0.000   0.200   0.000    0.00
  18.400   19.77   10.38   -3.75   0.000   0.200   0.000    0.00
  18.450   19.89    9.84   -2.82   0.000   0.200   0.000    0.00
  18.500   19.37    8.40   -3.80   0.000   0.200   0.000    0.00
  18.550   20.09   12.38   -3.91   0.000   0.200   0.000    0.00
  18.600   20.58   10.62   -3.71   0.000   0.200   0.000    0.00
  18.650   20.57   12.22   -4.64   0.000   0.200   0.000    0.00
  18.700   21.73   12.40   -4.38   0.000   0.200   0.000    0.00
  18.750   21.38   14.70   -3.81   0.000   0.200   0.000    0.00
  18.800   21.20   14.29   -3.20   0.000   0.200   0.000    0.00
  18.850   20.74   12.63   -3.40   0.000   0.200   0.000    0.00
  18.900   20.50   12.71   -2.66   0.000   0.200   0.000    0.00
  18.950   20.68   10.95   -1.88   0.000   0.200   0.000    0.00
  19.000   21.38   14.12   -1.15   0.000   0.200   0.000    0.00
  19.050   21.30   13.67   -0.89   0.000   0.200   0.000    0.00
  19.100   21.20   10.08   -1.57   0.000   0.200   0.000    0.00
  19.150   21.51   10.75   -2.26   0.000   0.200   0.000    0.00
  19.200   21.42   11.95   -2.96   0.000   0.200   0.000    0.00
  19.250   21.71   10.89   -3.02   0.000   0.200   0.000    0.00
  19.300   22.00   10.58   -2.85   0.000   0.200   0.000    0.00
  19.350   21.77   11.31   -1.85   0.000   0.200   0.000    0.00
  19.400   21.94   13.39   -1.47   0.000   0.200   0.000    0.00
  19.450   21.67   12.94   -1.93   0.000   0.200   0.000    0.00
  19.500   21.32   11.96   -2.52   0.000   0.200   0.000    0.00
  19.550   21.86   11.02   -2.62   0.000   0.200   0.000    0.00
  19.600   21.11   12.01   -2.62   0.000   0.200   0.000    0.00
  19.650   20.48   11.26   -2.21   0.000   0.200   0.000    0.00
  19.700   20.29   11.23   -1.49   0.000   0.200   0.000    0.00
  19.750   19.87   10.67   -2.18   0.000   0.200   0.000    0.00
  19.800   20.56   13.97   -2.16   0.000   0.200   0.000    0.00
  19.850   20.59    7.71   -2.73   0.000   0.200   0.000    0.00
  19.900   20.15    8.26   -3.52   0.000   0.200   0.000    0.00
  19.950   19.86    7.43   -3.64   0.000   0.200   0.000    0.00
  20.000   20.68    9.05   -2.61   0.000   0.200   0.000    0.00
  20.050   20.57    7.16   -1.38   0.000   0.200   0.000    0.00
  20.100   20.08    5.41   -1.18   0.000   0.200   0.000    0.00
  20.150   20.34    8.40   -1.12   0.000   0.200   0.000    0.00
  20.200   19.65    8.02   -0.32   0.000   0.200   0.000    0.00
  20.250   20.13    7.83   -0.73   0.000   0.200   0.000    0.00
  20.300   20.36    9.09   -1.12   0.000   0.200   0.000    0.00
  20.350   19.56    7.73   -1.87   0.000   0.200   0.000    0.00
  20.400   19.93    7.24   -1.64   0.000   0.200   0.000    0.00
  20.450   20.78    7.04   -0.94   0.000   0.200   0.000    0.00
  20.500   20.94    6.90   -1.68   0.000   0.200   0.000    0.00
  20.550   20.34    6.81   -0.77   0.000   0.200   0.000    0.00
  20.600   20.35    6.43   -0.60   0.000   0.200   0.000    0.00
  20.650   20.64    5.12   -0.93   0.000   0.200   0.000    0.00
  20.700   20.31    6.44   -0.77   0.000   0.200   0.000    0.00
  20.750   20.89    5.32   -0.99   0.000   0.200   0.000    0.00
  20.800   20.43    3.81   -1.74   0.000   0.200   0.000    0.00
  20.850   20.63    3.48   -2.37   0.000   0.200   0.000    0.00
  20.900   20.03    4.79   -2.69   0.000   0.200   0.000    0.00
  20.950   19.95    6.96   -2.49   0.000   0.200   0.000    0.00
  21.000   19.55    7.52   -2.27   0.000   0.200   0.000    0.00
  21.050   19.12    8.34   -3.14   0.000   0.200   0.000    0.00
  21.100   19.78   11.27   -3.18   0.000   0.200   0.000    0.00
  21.150   19.98   11.34   -2.06   0.000   0.200   0.000    0.00
  21.200   19.66    9.90   -1.92   0.000   0.200   0.000    0.00
  21.250   19.54    9.68   -2.44   0.000   0.200   0.000    0.00
  21.300   19.43   12.07   -2.53   0.000   0.200   0.000    0.00
  21.350   18.41   14.70   -2.94   0.000   0.200   0.000    0.00
  21.400   18.76   16.18   -2.60   0.000   0.200   0.000    0.00
  21.450   18.12   14.08   -1.96   0.000   0.200   0.000    0.00
  21.500   18.12   14.40   -2.38   0.000   0.200   0.000    0.00
  21.550   19.09   14.83   -1.51   0.000   0.200   0.000    0.00
  21.600   18.64   13.79   -0.07   0.000   0.200   0.000    0.00
  21.650   18.44   15.43   -0.31   0.000   0.200   0.000    0.00
  21.700   18.38   12.82   -1.05   0.000   0.200   0.000    0.00
  21.750   18.55   17.26   -0.28   0.000   0.200   0.000    0.00
  21.800   17.96   18.26   -0.41   0.000   0.200   0.000    0.00
  21.850   18.28   14.34   -0.52   0.000   0.200   0.000    0.00
  21.900   18.63   15.27   -0.14   0.000   0.200   0.000    0.00
  21.950   18.04   14.76    0.29   0.000   0.200   0.000    0.00
  22.000   19.09   15.84    0.31   0.000   0.200   0.000    0.00
  22.050   18.90   14.85    0.57   0.000   0.200   0.000    0.00
  22.100   19.17   14.99    0.57   0.000   0.200   0.000    0.00
  22.150   18.44   14.16    1.36   0.000   0.200   0.000    0.00
  22.200   17.93   11.34    1.27   0.000   0.200   0.000    0.00
  22.250   18.00   13.68    1.66   0.000   0.200   0.000    0.00
  22.300   18.22   17.43    0.92   0.000   0.200   0.000    0.00
  22.350   19.19   16.71    0.00   0.000   0.200   0.000    0.00
  22.400   18.93   16.30   -0.33   0.000   0.200   0.000    0.00
  22.450   18.42   14.58   -0.71   0.000   0.200   0.000    0.00
  22.500   18.57   15.26   -0.92   0.000   0.200   0.000    0.00
  22.550   18.79   13.88   -0.83   0.000   0.200   0.000    0.00
  22.600   19.49   11.07   -0.88   0.000   0.200   0.000    0.00
  22.650   19.26    9.01   -1.52   0.000   0.200   0.000    0.00
  22.700   19.39    9.83   -0.88   0.000   0.200   0.000    0.00