! This hub-height wind-speed file was generated by TurbSim (v1.50, 25-Sep-2009) on 18-Jul-2023 at 20:18:33.
!
! The requested statistics for this data were:
!    Mean Total Wind Speed =   24.504 m/s
!    Turbulence Intensity  =   16.000%
!
!   Time  HorSpd  WndDir  VerSpd  HorShr  VerShr  LnVShr  GstSpd
!  (sec)   (m/s)   (deg)   (m/s)     (-)     (-)     (-)   (m/s)
   0.000   26.56    3.68    2.56   0.000   0.200   0.000    0.00
   0.010   26.28    3.25    2.44   0.000   0.200   0.000    0.00
   0.020   26.62    3.73    2.95   0.000   0.200   0.000    0.00
   0.030   26.48    5.01    2.47   0.000   0.200   0.000    0.00
   0.040   26.15    4.18    2.73   0.000   0.200   0.000    0.00
   0.050   26.28    1.94    2.71   0.000   0.200   0.000    0.00
   0.060   26.13   -0.15    4.13   0.000   0.200   0.000    0.00
   0.070   25.79   -1.81    4.03   0.000   0.200   0.000    0.00
   0.080   26.15   -1.90    5.57   0.000   0.200   0.000    0.00
   0.090   26.18    0.13    5.62   0.000   0.200   0.000    0.00
   0.100   26.70    0.17    4.93   0.000   0.200   0.000    0.00
   0.110   27.79    0.92    4.63   0.000   0.200   0.000    0.00
   0.120   27.88    0.70    4.69   0.000   0.200   0.000    0.00
   0.130   28.26    1.67    5.06   0.000   0.200   0.000    0.00
   0.140   29.28    1.91    4.90   0.000   0.200   0.000    0.00
   0.150   29.27    0.19    4.26   0.000   0.200   0.000    0.00
   0.160   29.48    1.79    3.83   0.000   0.200   0.000    0.00
   0.170   29.68    1.76    4.74   0.000   0.200   0.000    0.00
   0.180   29.91    2.99    4.23   0.000   0.200   0.000    0.00
   0.190   29.60    3.83    3.77   0.000   0.200   0.000    0.00
   0.200   28.98    4.10    4.39   0.000   0.200   0.000    0.00
   0.210   29.48    5.17    5.01   0.000   0.200   0.000    0.00
   0.220   29.09    5.45    4.75   0.000   0.200   0.000    0.00
   0.230   29.34    7.61    5.10   0.000   0.200   0.000    0.00
   0.240   30.12    9.22    3.67   0.000   0.200   0.000    0.00
   0.250   30.60    8.34    3.48   0.000   0.200   0.000    0.00
   0.260   30.35    8.15    2.61   0.000   0.200   0.000    0.00
   0.270   28.95    7.80    2.47   0.000   0.200   0.000    0.00
   0.280   28.35    7.07    2.01   0.000   0.200   0.000    0.00
   0.290   28.39    9.12    1.21   0.000   0.200   0.000    0.00
   0.300   28.65    9.32    1.10   0.000   0.200   0.000    0.00
   0.310   27.64    7.99    1.68   0.000   0.200   0.000    0.00
   0.320   26.84    7.35    2.38   0.000   0.200   0.000    0.00
   0.330   27.75    5.81    1.97   0.000   0.200   0.000    0.00
   0.340   27.95    7.77    2.00   0.000   0.200   0.000    0.00
   0.350   27.49    9.35    2.33   0.000   0.200   0.000    0.00
   0.360   27.44    9.16    2.93   0.000   0.200   0.000    0.00
   0.370   26.37   10.88    2.50   0.000   0.200   0.000    0.00
   0.380   26.65   10.80    1.61   0.000   0.200   0.000    0.00
   0.390   26.13    9.94    2.18   0.000   0.200   0.000    0.00
   0.400   25.75    8.78    3.49   0.000   0.200   0.000    0.00
   0.410   25.83    8.27    3.76   0.000   0.200   0.000    0.00
   0.420   25.55    7.34    4.53   0.000   0.200   0.000    0.00
   0.430   25.67    8.96    4.14   0.000   0.200   0.000    0.00
   0.440   26.65   10.76    3.79   0.000   0.200   0.000    0.00
   0.450   27.02    9.99    2.78   0.000   0.200   0.000    0.00
   0.460   27.81    8.90    2.25   0.000   0.200   0.000    0.00
   0.470   26.89   10.26    1.46   0.000   0.200   0.000    0.00
   0.480   27.96    9.35    0.04   0.000   0.200   0.000    0.00
   0.490   27.31    8.11   -0.26   0.000   0.200   0.000    0.00
   0.500   27.17    6.39    0.14   0.000   0.200   0.000    0.00
   0.510   28.06    7.21   -0.35   0.000   0.200   0.000    0.00
   0.520   27.03    7.82    0.57   0.000   0.200   0.000    0.00
   0.530   27.55   12.21   -0.46   0.000   0.200   0.000    0.00
   0.540   27.83   12.61   -0.42   0.000   0.200   0.000    0.00
   0.550   27.21   12.26    0.19   0.000   0.200   0.000    0.00
   0.560   27.81    9.88    0.81   0.000   0.200   0.000    0.00
   0.570   27.75    8.14    1.71   0.000   0.200   0.000    0.00
   0.580   27.73    8.38    2.25   0.000   0.200   0.000    0.00
   0.590   27.97    7.16    1.21   0.000   0.200   0.000    0.00
   0.600   27.91    8.28    0.86   0.000   0.200   0.000    0.00
   0.610   28.00    6.92    1.60   0.000   0.200   0.000    0.00
   0.620   28.40    7.60    1.60   0.000   0.200   0.000    0.00
   0.630   28.05    9.92    1.87   0.000   0.200   0.000    0.00
   0.640   27.64    7.04    1.03   0.000   0.200   0.000    0.00
   0.650   27.59    6.36    1.09   0.000   0.200   0.000    0.00
   0.660   28.09    6.34    1.10   0.000   0.200   0.000    0.00
   0.670   27.16    6.46    1.52   0.000   0.200   0.000    0.00
   0.680   26.75    6.91    2.18   0.000   0.200   0.000    0.00
   0.690   26.98    7.61    2.67   0.000   0.200   0.000    0.00
   0.700   26.10    7.43    2.81   0.000   0.200   0.000    0.00
   0.710   25.90    5.70    1.76   0.000   0.200   0.000    0.00
   0.720   25.22    7.52    1.56   0.000   0.200   0.000    0.00
   0.730   25.60    7.53    2.47   0.000   0.200   0.000    0.00
   0.740   25.29    8.01    1.97   0.000   0.200   0.000    0.00
   0.750   26.09    8.12    1.83   0.000   0.200   0.000    0.00
   0.760   25.65    4.52    2.24   0.000   0.200   0.000    0.00
   0.770   26.48    4.42    3.09   0.000   0.200   0.000    0.00
   0.780   26.54    4.34    2.48   0.000   0.200   0.000    0.00
   0.790   26.17    5.12    3.03   0.000   0.200   0.000    0.00
   0.800   25.67    6.54    3.42   0.000   0.200   0.000    0.00
   0.810   25.40    4.52    4.84   0.000   0.200   0.000    0.00
   0.820   26.03    8.14    5.18   0.000   0.200   0.000    0.00
   0.830   26.48    8.59    4.13   0.000   0.200   0.000    0.00
   0.840   26.72    8.05    3.32   0.000   0.200   0.000    0.00
   0.850   26.49    9.36    3.78   0.000   0.200   0.000    0.00
   0.860   26.74   10.94    4.12   0.000   0.200   0.000    0.00
   0.870   26.37   11.84    4.60   0.000   0.200   0.000    0.00
   0.880   26.41   12.06    3.84   0.000   0.200   0.000    0.00
   0.890   27.22   12.98    3.80   0.000   0.200   0.000    0.00
   0.900   26.52    9.60    4.30   0.000   0.200   0.000    0.00
   0.910   26.46    6.69    5.05   0.000   0.200   0.000    0.00
   0.920   25.62    6.42    4.55   0.000   0.200   0.000    0.00
   0.930   25.69    7.63    3.83   0.000   0.200   0.000    0.00
   0.940   25.27    7.67    3.65   0.000   0.200   0.000    0.00
   0.950   24.80    8.32    3.88   0.000   0.200   0.000    0.00
   0.960   24.81    9.89    5.20   0.000   0.200   0.000    0.00
   0.970   25.14   11.60    5.35   0.000   0.200   0.000    0.00
   0.980   25.19   11.40    5.78   0.000   0.200   0.000    0.00
   0.990   26.23    9.61    6.08   0.000   0.200   0.000    0.00
   1.000   25.99    7.59    5.78   0.000   0.200   0.000    0.00
   1.010   26.32    7.98    5.69   0.000   0.200   0.000    0.00
   1.020   25.68   10.27    5.33   0.000   0.200   0.000    0.00
   1.030   25.68   12.44    5.89   0.000   0.200   0.000    0.00
   1.040   25.99   13.48    6.80   0.000   0.200   0.000    0.00
   1.050   26.07   14.65    6.77   0.000   0.200   0.000    0.00
   1.060   26.34   15.64    7.68   0.000   0.200   0.000    0.00
   1.070   26.07   14.62    7.46   0.000   0.200   0.000    0.00
   1.080   26.29   14.89    6.61   0.000   0.200   0.000    0.00
   1.090   25.94   15.22    7.25   0.000   0.200   0.000    0.00
   1.100   25.21   14.90    7.56   0.000   0.200   0.000    0.00
   1.110   25.35   14.74    7.44   0.000   0.200   0.000    0.00
   1.120   25.33   15.12    7.05   0.000   0.200   0.000    0.00
   1.130   24.10   14.67    6.06   0.000   0.200   0.000    0.00
   1.140   24.19   11.78    5.60   0.000   0.200   0.000    0.00
   1.150   24.75   12.99    6.12   0.000   0.200   0.000    0.00
   1.160   25.13   13.08    5.59   0.000   0.200   0.000    0.00
   1.170   25.01    9.89    5.67   0.000   0.200   0.000    0.00
   1.180   25.36   10.94    6.13   0.000   0.200   0.000    0.00
   1.190   25.63   12.92    5.27   0.000   0.200   0.000    0.00
   1.200   25.37   11.57    5.68   0.000   0.200   0.000    0.00
   1.210   26.25   11.97    6.32   0.000   0.200   0.000    0.00
   1.220   26.17   12.51    7.88   0.000   0.200   0.000    0.00
   1.230   27.09   10.09    6.44   0.000   0.200   0.000    0.00
   1.240   26.87   11.04    6.45   0.000   0.200   0.000    0.00
   1.250   26.72   11.30    7.57   0.000   0.200   0.000    0.00
   1.260   26.80   11.80    7.29   0.000   0.200   0.000    0.00
   1.270   27.24   11.40    6.69   0.000   0.200   0.000    0.00
   1.280   27.07   13.29    6.73   0.000   0.200   0.000    0.00
   1.290   27.35   13.06    5.71   0.000   0.200   0.000    0.00
   1.300   26.48   13.96    6.08   0.000   0.200   0.000    0.00
   1.310   25.67   13.34    6.21   0.000   0.200   0.000    0.00
   1.320   25.43   11.39    5.83   0.000   0.200   0.000    0.00
   1.330   27.09   14.44    5.70   0.000   0.200   0.000    0.00
   1.340   26.60   15.05    5.03   0.000   0.200   0.000    0.00
   1.350   26.76   16.96    5.22   0.000   0.200   0.000    0.00
   1.360   27.54   16.41    4.60   0.000   0.200   0.000    0.00
   1.370   26.76   14.57    5.15   0.000   0.200   0.000    0.00
   1.380   26.30   16.51    4.88   0.000   0.200   0.000    0.00
   1.390   26.46   17.42    4.31   0.000   0.200   0.000    0.00
   1.400   26.41   15.54    4.51   0.000   0.200   0.000    0.00
   1.410   26.91   14.27    4.02   0.000   0.200   0.000    0.00
   1.420   26.37   13.18    3.89   0.000   0.200   0.000    0.00
   1.430   26.34   15.87    4.27   0.000   0.200   0.000    0.00
   1.440   26.52   16.15    3.51   0.000   0.200   0.000    0.00
   1.450   26.48   15.34    3.63   0.000   0.200   0.000    0.00
   1.460   26.80   13.48    3.57   0.000   0.200   0.000    0.00
   1.470   26.55   14.96    3.14   0.000   0.200   0.000    0.00
   1.480   26.12   15.94    3.80   0.000   0.200   0.000    0.00
   1.490   25.80   16.36    3.74   0.000   0.200   0.000    0.00
   1.500   26.61   17.17    4.62   0.000   0.200   0.000    0.00
   1.510   26.97   15.34    5.96   0.000   0.200   0.000    0.00
   1.520   26.71   13.64    4.38   0.000   0.200   0.000    0.00
   1.530   25.86   12.85    3.78   0.000   0.200   0.000    0.00
   1.540   25.64   11.98    2.16   0.000   0.200   0.000    0.00
   1.550   26.65   11.28    2.92   0.000   0.200   0.000    0.00
   1.560   26.74   12.81    4.79   0.000   0.200   0.000    0.00
   1.570   26.42   11.35    4.81   0.000   0.200   0.000    0.00
   1.580   27.09   14.27    4.96   0.000   0.200   0.000    0.00
   1.590   26.65   12.23    4.87   0.000   0.200   0.000    0.00
   1.600   26.82   12.51    4.37   0.000   0.200   0.000    0.00
   1.610   27.05   11.03    4.30   0.000   0.200   0.000    0.00
   1.620   27.83   10.13    4.29   0.000   0.200   0.000    0.00
   1.630   28.00   11.71    4.76   0.000   0.200   0.000    0.00
   1.640   28.43   10.08    4.11   0.000   0.200   0.000    0.00
   1.650   28.15   10.13    5.07   0.000   0.200   0.000    0.00
   1.660   27.85   12.54    4.47   0.000   0.200   0.000    0.00
   1.670   28.10    9.79    4.41   0.000   0.200   0.000    0.00
   1.680   28.51    7.34    5.37   0.000   0.200   0.000    0.00
   1.690   28.55    7.32    5.86   0.000   0.200   0.000    0.00
   1.700   28.63    8.35    4.32   0.000   0.200   0.000    0.00
   1.710   28.28    5.48    3.59   0.000   0.200   0.000    0.00
   1.720   28.11    5.98    4.16   0.000   0.200   0.000    0.00
   1.730   27.55    7.99    5.31   0.000   0.200   0.000    0.00
   1.740   26.37    5.93    5.72   0.000   0.200   0.000    0.00
   1.750   26.18    4.69    4.50   0.000   0.200   0.000    0.00
   1.760   27.52    7.02    4.06   0.000   0.200   0.000    0.00
   1.770   27.86    7.00    3.82   0.000   0.200   0.000    0.00
   1.780   26.85    5.84    3.32   0.000   0.200   0.000    0.00
   1.790   26.59    7.43    3.58   0.000   0.200   0.000    0.00
   1.800   27.16    4.78    4.59   0.000   0.200   0.000    0.00
   1.810   27.65    8.71    4.53   0.000   0.200   0.000    0.00
   1.820   26.63    9.65    4.62   0.000   0.200   0.000    0.00
   1.830   25.85    8.17    4.26   0.000   0.200   0.000    0.00
   1.840   26.44   10.54    3.21   0.000   0.200   0.000    0.00
   1.850   26.70   11.75    2.99   0.000   0.200   0.000    0.00
   1.860   26.79   12.55    3.02   0.000   0.200   0.000    0.00
   1.870   26.68   13.42    3.67   0.000   0.200   0.000    0.00
   1.880   26.63    9.74    3.16   0.000   0.200   0.000    0.00
   1.890   27.06   11.75    2.87   0.000   0.200   0.000    0.00
   1.900   27.86   12.13    2.55   0.000   0.200   0.000    0.00
   1.910   28.36   12.41    2.40   0.000   0.200   0.000    0.00
   1.920   28.23   14.71    3.20   0.000   0.200   0.000    0.00
   1.930   28.60   13.81    1.70   0.000   0.200   0.000    0.00
   1.940   28.79   13.51    1.24   0.000   0.200   0.000    0.00
   1.950   28.41   15.31    1.18   0.000   0.200   0.000    0.00
   1.960   27.30   15.78    1.20   0.000   0.200   0.000    0.00
   1.970   26.77   14.39    0.87   0.000   0.200   0.000    0.00
   1.980   26.50   12.83    0.84   0.000   0.200   0.000    0.00
   1.990   26.26   10.21    0.96   0.000   0.200   0.000    0.00
   2.000   26.98   10.09   -0.33   0.000   0.200   0.000    0.00
   2.010   26.38   11.52   -0.68   0.000   0.200   0.000    0.00
   2.020   26.39   11.57    0.06   0.000   0.200   0.000    0.00
   2.030   25.78   11.99    0.34   0.000   0.200   0.000    0.00
   2.040   25.32   13.62    0.03   0.000   0.200   0.000    0.00
   2.050   25.38   14.32    0.15   0.000   0.200   0.000    0.00
   2.060   25.36   18.17    1.13   0.000   0.200   0.000    0.00
   2.070   24.89   18.08    1.19   0.000   0.200   0.000    0.00
   2.080   24.56   16.71    2.06   0.000   0.200   0.000    0.00
   2.090   23.85   14.96    1.89   0.000   0.200   0.000    0.00
   2.100   23.85   12.29    1.80   0.000   0.200   0.000    0.00
   2.110   23.98   10.82    2.39   0.000   0.200   0.000    0.00
   2.120   23.71   10.12    3.75   0.000   0.200   0.000    0.00
   2.130   23.81   10.83    2.93   0.000   0.200   0.000    0.00
   2.140   24.79   13.71    2.44   0.000   0.200   0.000    0.00
   2.150   25.06   13.80    3.03   0.000   0.200   0.000    0.00
   2.160   24.61   13.90    2.99   0.000   0.200   0.000    0.00
   2.170   24.96   13.75    3.22   0.000   0.200   0.000    0.00
   2.180   24.94   15.25    4.17   0.000   0.200   0.000    0.00
   2.190   24.63   14.85    3.14   0.000   0.200   0.000    0.00
   2.200   24.06   17.04    1.68   0.000   0.200   0.000    0.00
   2.210   23.55   17.31    2.50   0.000   0.200   0.000    0.00
   2.220   23.65   17.96    2.76   0.000   0.200   0.000    0.00
   2.230   23.76   15.20    2.51   0.000   0.200   0.000    0.00
   2.240   24.48   16.65    2.54   0.000   0.200   0.000    0.00
   2.250   24.56   16.00    2.33   0.000   0.200   0.000    0.00
   2.260   25.41   15.62    2.10   0.000   0.200   0.000    0.00
   2.270   25.69   16.58    2.22   0.000   0.200   0.000    0.00
   2.280   25.77   16.39    2.50   0.000   0.200   0.000    0.00
   2.290   25.64   17.55    1.60   0.000   0.200   0.000    0.00
   2.300   25.80   16.23    1.70   0.000   0.200   0.000    0.00
   2.310   25.49   16.94    0.65   0.000   0.200   0.000    0.00
   2.320   24.33   12.97    1.91   0.000   0.200   0.000    0.00
   2.330   24.23   13.57    1.31   0.000   0.200   0.000    0.00
   2.340   24.49   13.31    1.24   0.000   0.200   0.000    0.00
   2.350   24.88   11.78    0.06   0.000   0.200   0.000    0.00
   2.360   26.21   13.34    0.94   0.000   0.200   0.000    0.00
   2.370   26.22   12.24    0.94   0.000   0.200   0.000    0.00
   2.380   26.07   13.36    1.15   0.000   0.200   0.000    0.00
   2.390   27.43   13.56    1.62   0.000   0.200   0.000    0.00
   2.400   27.65   13.43    2.50   0.000   0.200   0.000    0.00
   2.410   26.55   12.68    2.17   0.000   0.200   0.000    0.00
   2.420   26.72   13.37    1.71   0.000   0.200   0.000    0.00
   2.430   27.53   12.69    0.98   0.000   0.200   0.000    0.00
   2.440   27.43   14.14    0.82   0.000   0.200   0.000    0.00
   2.450   28.33   15.50    1.11   0.000   0.200   0.000    0.00
   2.460   28.62   15.60    1.85   0.000   0.200   0.000    0.00
   2.470   27.71   15.64    2.41   0.000   0.200   0.000    0.00
   2.480   27.12   16.62    2.24   0.000   0.200   0.000    0.00
   2.490   26.60   17.88    2.25   0.000   0.200   0.000    0.00
   2.500   25.89   18.72    2.69   0.000   0.200   0.000    0.00
   2.510   26.75   15.31    2.20   0.000   0.200   0.000    0.00
   2.520   27.19   14.28    2.61   0.000   0.200   0.000    0.00
   2.530   26.18   12.57    2.38   0.000   0.200   0.000    0.00
   2.540   26.43    8.97    2.51   0.000   0.200   0.000    0.00
   2.550   26.27    8.30    1.48   0.000   0.200   0.000    0.00
   2.560   25.66    7.73    1.55   0.000   0.200   0.000    0.00
   2.570   25.70    6.31    2.49   0.000   0.200   0.000    0.00
   2.580   25.44    4.68    3.40   0.000   0.200   0.000    0.00
   2.590   24.76    7.14    2.44   0.000   0.200   0.000    0.00
   2.600   24.61   10.08    2.56   0.000   0.200   0.000    0.00
   2.610   24.36    8.27    2.85   0.000   0.200   0.000    0.00
   2.620   25.90    9.18    3.36   0.000   0.200   0.000    0.00
   2.630   25.58   10.49    3.45   0.000   0.200   0.000    0.00
   2.640   24.64   10.03    3.79   0.000   0.200   0.000    0.00
   2.650   23.87    7.77    4.54   0.000   0.200   0.000    0.00
   2.660   23.81    5.79    5.79   0.000   0.200   0.000    0.00
   2.670   24.38    7.45    4.48   0.000   0.200   0.000    0.00
   2.680   25.37    8.11    4.31   0.000   0.200   0.000    0.00
   2.690   25.87    9.75    3.45   0.000   0.200   0.000    0.00
   2.700   24.87    8.12    3.65   0.000   0.200   0.000    0.00
   2.710   24.52    7.29    5.19   0.000   0.200   0.000    0.00
   2.720   24.29    8.46    4.69   0.000   0.200   0.000    0.00
   2.730   24.78    9.57    5.37   0.000   0.200   0.000    0.00
   2.740   25.19   10.16    6.10   0.000   0.200   0.000    0.00
   2.750   24.00   11.78    5.29   0.000   0.200   0.000    0.00
   2.760   24.70   11.19    5.63   0.000   0.200   0.000    0.00
   2.770   25.04   10.77    6.18   0.000   0.200   0.000    0.00
   2.780   25.83   10.06    6.33   0.000   0.200   0.000    0.00
   2.790   25.96   11.41    5.71   0.000   0.200   0.000    0.00
   2.800   26.51   12.44    6.08   0.000   0.200   0.000    0.00
   2.810   26.51   14.43    6.35   0.000   0.200   0.000    0.00
   2.820   26.38   14.75    5.83   0.000   0.200   0.000    0.00
   2.830   27.20   14.28    6.42   0.000   0.200   0.000    0.00
   2.840   27.11   13.58    6.15   0.000   0.200   0.000    0.00
   2.850   26.54   11.48    7.30   0.000   0.200   0.000    0.00
   2.860   25.99    9.65    7.29   0.000   0.200   0.000    0.00
   2.870   25.64    9.83    6.98   0.000   0.200   0.000    0.00
   2.880   25.35    9.63    7.07   0.000   0.200   0.000    0.00
   2.890   26.13    7.88    6.83   0.000   0.200   0.000    0.00
   2.900   26.35    8.01    6.81   0.000   0.200   0.000    0.00
   2.910   27.10   10.07    6.97   0.000   0.200   0.000    0.00
   2.920   27.52   11.01    7.46   0.000   0.200   0.000    0.00
   2.930   27.81   10.44    7.78   0.000   0.200   0.000    0.00
   2.940   27.24    8.98    7.94   0.000   0.200   0.000    0.00
   2.950   27.18    9.93    8.10   0.000   0.200   0.000    0.00
   2.960   27.54   11.60    8.24   0.000   0.200   0.000    0.00
   2.970   27.27   11.22    7.73   0.000   0.200   0.000    0.00
   2.980   27.68   10.47    7.42   0.000   0.200   0.000    0.00
   2.990   27.53    9.38    7.76   0.000   0.200   0.000    0.00
   3.000   27.74    7.81    7.18   0.000   0.200   0.000    0.00
   3.010   27.95    8.08    6.69   0.000   0.200   0.000    0.00
   3.020   28.14    6.58    5.77   0.000   0.200   0.000    0.00
   3.030   27.58    5.47    6.48   0.000   0.200   0.000    0.00
   3.040   27.11    3.85    6.70   0.000   0.200   0.000    0.00
   3.050   26.83    5.38    8.67   0.000   0.200   0.000    0.00
   3.060   27.29    7.01    7.30   0.000   0.200   0.000    0.00
   3.070   27.89    7.46    7.20   0.000   0.200   0.000    0.00
   3.080   27.63    6.97    6.90   0.000   0.200   0.000    0.00
   3.090   28.11    5.72    6.36   0.000   0.200   0.000    0.00
   3.100   28.62    5.42    5.48   0.000   0.200   0.000    0.00
   3.110   28.73    6.43    5.10   0.000   0.200   0.000    0.00
   3.120   27.39    7.09    4.58   0.000   0.200   0.000    0.00
   3.130   27.38    5.73    5.60   0.000   0.200   0.000    0.00
   3.140   27.83    7.13    5.71   0.000   0.200   0.000    0.00
   3.150   28.41    9.23    4.81   0.000   0.200   0.000    0.00
   3.160   27.27    7.64    5.82   0.000   0.200   0.000    0.00
   3.170   27.59    8.75    6.19   0.000   0.200   0.000    0.00
   3.180   27.58   11.44    6.92   0.000   0.200   0.000    0.00
   3.190   26.18    9.69    6.05   0.000   0.200   0.000    0.00
   3.200   27.40    6.32    6.49   0.000   0.200   0.000    0.00
   3.210   26.48    6.25    7.21   0.000   0.200   0.000    0.00
   3.220   26.51    9.21    8.15   0.000   0.200   0.000    0.00
   3.230   27.16    7.58    8.52   0.000   0.200   0.000    0.00
   3.240   27.49    9.48    8.07   0.000   0.200   0.000    0.00
   3.250   27.85    8.72    8.67   0.000   0.200   0.000    0.00
   3.260   27.82    7.10    7.75   0.000   0.200   0.000    0.00
   3.270   27.19    6.59    7.91   0.000   0.200   0.000    0.00
   3.280   27.58    6.84    7.94   0.000   0.200   0.000    0.00
   3.290   27.11    6.15    8.58   0.000   0.200   0.000    0.00
   3.300   27.19    5.24    8.77   0.000   0.200   0.000    0.00
   3.310   27.65    9.16    8.12   0.000   0.200   0.000    0.00
   3.320   27.12    8.85    8.17   0.000   0.200   0.000    0.00
   3.330   27.70    7.64    7.32   0.000   0.200   0.000    0.00
   3.340   27.55    9.17    7.55   0.000   0.200   0.000    0.00
   3.350   27.67    9.23    7.45   0.000   0.200   0.000    0.00
   3.360   27.64    7.77    7.66   0.000   0.200   0.000    0.00
   3.370   27.75    6.64    7.63   0.000   0.200   0.000    0.00
   3.380   26.96    5.71    7.62   0.000   0.200   0.000    0.00
   3.390   25.67    7.43    8.01   0.000   0.200   0.000    0.00
   3.400   26.59    8.60    7.88   0.000   0.200   0.000    0.00
   3.410   27.10    8.60    7.18   0.000   0.200   0.000    0.00
   3.420   27.13    6.45    7.42   0.000   0.200   0.000    0.00
   3.430   26.95    4.58    6.52   0.000   0.200   0.000    0.00
   3.440   27.18    5.23    6.88   0.000   0.200   0.000    0.00
   3.450   27.02    6.25    8.26   0.000   0.200   0.000    0.00
   3.460   26.42    5.66    7.92   0.000   0.200   0.000    0.00
   3.470   27.99    5.91    8.35   0.000   0.200   0.000    0.00
   3.480   28.63    4.00    9.17   0.000   0.200   0.000    0.00
   3.490   28.59    3.16    9.13   0.000   0.200   0.000    0.00
   3.500   28.94    3.32    8.96   0.000   0.200   0.000    0.00
   3.510   28.76    2.52    9.15   0.000   0.200   0.000    0.00
   3.520   28.92    1.68    7.96   0.000   0.200   0.000    0.00
   3.530   28.41    4.22    8.01   0.000   0.200   0.000    0.00
   3.540   28.44    6.39    7.68   0.000   0.200   0.000    0.00
   3.550   28.03    8.19    8.23   0.000   0.200   0.000    0.00
   3.560   28.60    9.18    8.10   0.000   0.200   0.000    0.00
   3.570   27.91    8.09    8.18   0.000   0.200   0.000    0.00
   3.580   27.23    8.46    7.75   0.000   0.200   0.000    0.00
   3.590   27.67    8.77    9.59   0.000   0.200   0.000    0.00
   3.600   27.64    7.80    9.16   0.000   0.200   0.000    0.00
   3.610   27.31    7.38    9.11   0.000   0.200   0.000    0.00
   3.620   27.39    8.56    9.79   0.000   0.200   0.000    0.00
   3.630   26.99   10.00    8.73   0.000   0.200   0.000    0.00
   3.640   26.65   12.52    8.57   0.000   0.200   0.000    0.00
   3.650   26.55   11.48    9.48   0.000   0.200   0.000    0.00
   3.660   25.34   12.91   10.83   0.000   0.200   0.000    0.00
   3.670   26.13   13.11   11.28   0.000   0.200   0.000    0.00
   3.680   25.92   13.37   10.45   0.000   0.200   0.000    0.00
   3.690   25.88   12.72   10.52   0.000   0.200   0.000    0.00
   3.700   25.25   12.37   10.21   0.000   0.200   0.000    0.00
   3.710   25.49   11.97    9.41   0.000   0.200   0.000    0.00
   3.720   26.39   12.71    8.94   0.000   0.200   0.000    0.00
   3.730   28.35   12.66    8.40   0.000   0.200   0.000    0.00
   3.740   28.03   14.21    8.07   0.000   0.200   0.000    0.00
   3.750   27.83   11.81    9.18   0.000   0.200   0.000    0.00
   3.760   26.46   11.23    8.37   0.000   0.200   0.000    0.00
   3.770   26.64   10.92    8.85   0.000   0.200   0.000    0.00
   3.780   27.41   11.34    8.79   0.000   0.200   0.000    0.00
   3.790   28.30    9.62    7.50   0.000   0.200   0.000    0.00
   3.800   28.21   10.59    7.74   0.000   0.200   0.000    0.00
   3.810   26.63   11.22    8.27   0.000   0.200   0.000    0.00
   3.820   26.64   10.68    8.07   0.000   0.200   0.000    0.00
   3.830   27.47   10.71    7.60   0.000   0.200   0.000    0.00
   3.840   27.25   12.94    7.51   0.000   0.200   0.000    0.00
   3.850   28.21   12.47    7.03   0.000   0.200   0.000    0.00
   3.860   28.24   11.10    6.23   0.000   0.200   0.000    0.00
   3.870   27.82   11.78    4.38   0.000   0.200   0.000    0.00
   3.880   27.47   13.46    3.11   0.000   0.200   0.000    0.00
   3.890   26.64   12.01    4.22   0.000   0.200   0.000    0.00
   3.900   26.32   11.39    3.80   0.000   0.200   0.000    0.00
   3.910   26.38   10.70    4.04   0.000   0.200   0.000    0.00
   3.920   25.83    9.45    5.08   0.000   0.200   0.000    0.00
   3.930   25.00   11.36    4.09   0.000   0.200   0.000    0.00
   3.940   24.43   10.77    4.55   0.000   0.200   0.000    0.00
   3.950   24.86   14.29    5.15   0.000   0.200   0.000    0.00
   3.960   24.94   14.79    5.93   0.000   0.200   0.000    0.00
   3.970   25.71   16.14    5.95   0.000   0.200   0.000    0.00
   3.980   25.31   17.94    6.84   0.000   0.200   0.000    0.00
   3.990   24.52   18.25    7.61   0.000   0.200   0.000    0.00
   4.000   24.50   15.57    8.45   0.000   0.200   0.000    0.00
   4.010   24.46   17.58    8.83   0.000   0.200   0.000    0.00
   4.020   24.62   18.18    8.03   0.000   0.200   0.000    0.00
   4.030   24.03   15.88    8.72   0.000   0.200   0.000    0.00
   4.040   24.41   16.36    8.03   0.000   0.200   0.000    0.00
   4.050   25.23   16.48    6.87   0.000   0.200   0.000    0.00
   4.060   25.54   19.04    6.69   0.000   0.200   0.000    0.00
   4.070   25.41   18.96    7.77   0.000   0.200   0.000    0.00
   4.080   24.59   18.93    9.33   0.000   0.200   0.000    0.00
   4.090   24.47   17.84    9.17   0.000   0.200   0.000    0.00
   4.100   24.86   20.05    8.20   0.000   0.200   0.000    0.00
   4.110   25.96   18.84    8.35   0.000   0.200   0.000    0.00
   4.120   26.22   19.39    9.20   0.000   0.200   0.000    0.00
   4.130   27.00   21.06    8.18   0.000   0.200   0.000    0.00
   4.140   27.46   18.85    7.64   0.000   0.200   0.000    0.00
   4.150   27.50   18.43    6.96   0.000   0.200   0.000    0.00
   4.160   27.83   17.50    6.80   0.000   0.200   0.000    0.00
   4.170   27.56   18.54    6.56   0.000   0.200   0.000    0.00
   4.180   26.39   20.09    7.14   0.000   0.200   0.000    0.00
   4.190   26.18   21.50    7.46   0.000   0.200   0.000    0.00
   4.200   26.51   20.55    8.15   0.000   0.200   0.000    0.00
   4.210   25.53   22.06    7.39   0.000   0.200   0.000    0.00
   4.220   25.39   20.24    8.03   0.000   0.200   0.000    0.00
   4.230   25.09   17.96    7.21   0.000   0.200   0.000    0.00
   4.240   25.02   17.27    7.57   0.000   0.200   0.000    0.00
   4.250   25.54   17.31    8.75   0.000   0.200   0.000    0.00
   4.260   25.38   18.22    7.13   0.000   0.200   0.000    0.00
   4.270   24.99   19.08    6.95   0.000   0.200   0.000    0.00
   4.280   24.58   20.28    7.42   0.000   0.200   0.000    0.00
   4.290   24.30   19.61    7.74   0.000   0.200   0.000    0.00
   4.300   24.29   17.01    8.02   0.000   0.200   0.000    0.00
   4.310   24.35   14.89    8.07   0.000   0.200   0.000    0.00
   4.320   24.07   16.54    8.07   0.000   0.200   0.000    0.00
   4.330   24.85   15.73    7.58   0.000   0.200   0.000    0.00
   4.340   24.92   14.32    7.64   0.000   0.200   0.000    0.00
   4.350   25.87   15.18    7.51   0.000   0.200   0.000    0.00
   4.360   26.20   16.00    7.75   0.000   0.200   0.000    0.00
   4.370   26.15   13.59    8.19   0.000   0.200   0.000    0.00
   4.380   25.10   14.26    7.50   0.000   0.200   0.000    0.00
   4.390   25.17   14.96    7.22   0.000   0.200   0.000    0.00
   4.400   25.72   13.75    6.69   0.000   0.200   0.000    0.00
   4.410   25.76   13.76    6.52   0.000   0.200   0.000    0.00
   4.420   25.89   15.07    7.56   0.000   0.200   0.000    0.00
   4.430   25.47   14.18    8.55   0.000   0.200   0.000    0.00
   4.440   24.71   19.17    7.15   0.000   0.200   0.000    0.00
   4.450   25.01   18.58    7.52   0.000   0.200   0.000    0.00
   4.460   24.82   17.25    6.89   0.000   0.200   0.000    0.00
   4.470   24.81   14.63    6.48   0.000   0.200   0.000    0.00
   4.480   25.20   15.02    6.56   0.000   0.200   0.000    0.00
   4.490   25.19   14.37    6.87   0.000   0.200   0.000    0.00
   4.500   25.36   15.26    7.68   0.000   0.200   0.000    0.00
   4.510   25.42   14.35    8.98   0.000   0.200   0.000    0.00
   4.520   26.88   13.63    8.03   0.000   0.200   0.000    0.00
   4.530   27.65   13.07    7.56   0.000   0.200   0.000    0.00
   4.540   27.27   13.87    8.51   0.000   0.200   0.000    0.00