! This hub-height wind-speed file was generated by TurbSim (v1.50, 25-Sep-2009) on 31-Jul-2023 at 09:58:16.
!
! The requested statistics for this data were:
!    Mean Total Wind Speed =   20.000 m/s
!    Turbulence Intensity  =   14.420%
!
!   Time  HorSpd  WndDir  VerSpd  HorShr  VerShr  LnVShr  GstSpd
!  (sec)   (m/s)   (deg)   (m/s)     (-)     (-)     (-)   (m/s)
   0.000   17.89   13.83   -2.74   0.000   0.200   0.000    0.00
   0.010   18.24   13.91   -2.26   0.000   0.200   0.000    0.00
   0.020   18.33   12.43   -2.49   0.000   0.200   0.000    0.00
   0.030   18.69   12.60   -1.92   0.000   0.200   0.000    0.00
   0.040   19.47   13.60   -1.92   0.000   0.200   0.000    0.00
   0.050   19.41   12.39   -1.74   0.000   0.200   0.000    0.00
   0.060   18.66    9.57   -0.94   0.000   0.200   0.000    0.00
   0.070   18.82    7.69   -1.36   0.000   0.200   0.000    0.00
   0.080   18.39    6.57   -1.39   0.000   0.200   0.000    0.00
   0.090   18.10    6.13   -1.72   0.000   0.200   0.000    0.00
   0.100   18.04    5.88   -1.13   0.000   0.200   0.000    0.00
   0.110   17.97    6.13   -0.63   0.000   0.200   0.000    0.00
   0.120   18.18    7.34   -1.14   0.000   0.200   0.000    0.00
   0.130   18.12    7.64   -0.36   0.000   0.200   0.000    0.00
   0.140   18.45    6.38   -0.34   0.000   0.200   0.000    0.00
   0.150   18.42    7.27   -0.92   0.000   0.200   0.000    0.00
   0.160   18.23    6.68   -0.86   0.000   0.200   0.000    0.00
   0.170   18.02    6.65   -1.11   0.000   0.200   0.000    0.00
   0.180   17.47    6.30   -0.34   0.000   0.200   0.000    0.00
   0.190   17.45    5.60    0.22   0.000   0.200   0.000    0.00
   0.200   18.21    5.11    0.10   0.000   0.200   0.000    0.00
   0.210   17.94    6.82   -0.13   0.000   0.200   0.000    0.00
   0.220   17.77    7.15    0.34   0.000   0.200   0.000    0.00
   0.230   17.38    8.45    0.60   0.000   0.200   0.000    0.00
   0.240   17.05    8.12    0.23   0.000   0.200   0.000    0.00
   0.250   17.22    6.75    0.28   0.000   0.200   0.000    0.00
   0.260   16.62    7.34   -0.16   0.000   0.200   0.000    0.00
   0.270   16.47    9.82   -0.52   0.000   0.200   0.000    0.00
   0.280   16.83   10.36   -0.57   0.000   0.200   0.000    0.00
   0.290   18.27   11.73   -1.66   0.000   0.200   0.000    0.00
   0.300   18.31   11.60   -1.53   0.000   0.200   0.000    0.00
   0.310   17.63   10.62   -1.81   0.000   0.200   0.000    0.00
   0.320   18.15    8.68   -2.24   0.000   0.200   0.000    0.00
   0.330   17.94    7.48   -2.06   0.000   0.200   0.000    0.00
   0.340   17.36    6.17   -1.96   0.000   0.200   0.000    0.00
   0.350   17.15    3.80   -2.38   0.000   0.200   0.000    0.00
   0.360   16.98    1.79   -2.83   0.000   0.200   0.000    0.00
   0.370   18.12    0.90   -2.73   0.000   0.200   0.000    0.00
   0.380   17.86    2.65   -2.90   0.000   0.200   0.000    0.00
   0.390   18.28    1.41   -3.01   0.000   0.200   0.000    0.00
   0.400   18.57    2.35   -2.67   0.000   0.200   0.000    0.00
   0.410   18.26    3.02   -2.64   0.000   0.200   0.000    0.00
   0.420   17.95    3.03   -2.22   0.000   0.200   0.000    0.00
   0.430   17.99    5.48   -1.96   0.000   0.200   0.000    0.00
   0.440   17.45    5.63   -2.18   0.000   0.200   0.000    0.00
   0.450   17.47    7.12   -2.08   0.000   0.200   0.000    0.00
   0.460   17.91    8.20   -1.87   0.000   0.200   0.000    0.00
   0.470   17.80    7.74   -1.96   0.000   0.200   0.000    0.00
   0.480   18.27    4.73   -0.96   0.000   0.200   0.000    0.00
   0.490   17.97    5.18   -0.65   0.000   0.200   0.000    0.00
   0.500   17.88    2.85   -1.10   0.000   0.200   0.000    0.00
   0.510   17.66    0.52   -1.27   0.000   0.200   0.000    0.00
   0.520   16.53    3.35   -1.94   0.000   0.200   0.000    0.00
   0.530   16.96    4.28   -2.12   0.000   0.200   0.000    0.00
   0.540   17.38    1.81   -2.79   0.000   0.200   0.000    0.00
   0.550   18.51    1.25   -1.91   0.000   0.200   0.000    0.00
   0.560   19.05    1.36   -1.88   0.000   0.200   0.000    0.00
   0.570   19.24    2.00   -2.28   0.000   0.200   0.000    0.00
   0.580   18.41    2.15   -2.42   0.000   0.200   0.000    0.00
   0.590   17.66    2.50   -2.26   0.000   0.200   0.000    0.00
   0.600   17.77    1.91   -2.16   0.000   0.200   0.000    0.00
   0.610   17.97    0.00   -2.40   0.000   0.200   0.000    0.00
   0.620   17.21    1.67   -2.25   0.000   0.200   0.000    0.00
   0.630   17.75   -0.89   -1.89   0.000   0.200   0.000    0.00
   0.640   17.32   -2.33   -1.99   0.000   0.200   0.000    0.00
   0.650   17.69   -4.52   -1.81   0.000   0.200   0.000    0.00
   0.660   17.88   -3.94   -2.30   0.000   0.200   0.000    0.00
   0.670   17.99   -4.06   -2.82   0.000   0.200   0.000    0.00
   0.680   18.29   -4.91   -2.63   0.000   0.200   0.000    0.00
   0.690   18.18   -4.80   -3.14   0.000   0.200   0.000    0.00
   0.700   18.27   -4.55   -1.81   0.000   0.200   0.000    0.00
   0.710   18.05   -4.14   -2.63   0.000   0.200   0.000    0.00
   0.720   18.03   -5.49   -2.20   0.000   0.200   0.000    0.00
   0.730   18.37   -3.74   -2.60   0.000   0.200   0.000    0.00
   0.740   18.56   -4.81   -2.40   0.000   0.200   0.000    0.00
   0.750   18.55   -5.77   -2.15   0.000   0.200   0.000    0.00
   0.760   18.34   -7.82   -2.47   0.000   0.200   0.000    0.00
   0.770   18.68   -6.76   -2.36   0.000   0.200   0.000    0.00
   0.780   18.62   -4.36   -1.83   0.000   0.200   0.000    0.00
   0.790   18.41   -6.60   -1.58   0.000   0.200   0.000    0.00
   0.800   19.17   -7.68   -2.03   0.000   0.200   0.000    0.00
   0.810   19.78   -5.29   -2.34   0.000   0.200   0.000    0.00
   0.820   19.56   -6.16   -1.19   0.000   0.200   0.000    0.00
   0.830   19.61   -6.12   -0.52   0.000   0.200   0.000    0.00
   0.840   19.96   -5.31   -0.28   0.000   0.200   0.000    0.00
   0.850   20.44   -5.67   -0.24   0.000   0.200   0.000    0.00
   0.860   20.87   -7.30   -0.03   0.000   0.200   0.000    0.00
   0.870   20.65   -9.17   -0.22   0.000   0.200   0.000    0.00
   0.880   20.93   -9.42   -0.75   0.000   0.200   0.000    0.00
   0.890   20.70   -9.01   -0.64   0.000   0.200   0.000    0.00
   0.900   20.18  -10.19    0.21   0.000   0.200   0.000    0.00
   0.910   19.68   -9.63    0.06   0.000   0.200   0.000    0.00
   0.920   19.89   -9.86   -0.34   0.000   0.200   0.000    0.00
   0.930   20.44   -9.17   -0.28   0.000   0.200   0.000    0.00
   0.940   19.99   -8.91   -0.84   0.000   0.200   0.000    0.00
   0.950   20.07   -8.26   -0.64   0.000   0.200   0.000    0.00
   0.960   20.15   -9.19   -1.28   0.000   0.200   0.000    0.00
   0.970   20.34   -9.31   -1.36   0.000   0.200   0.000    0.00
   0.980   20.58   -9.16   -0.69   0.000   0.200   0.000    0.00
   0.990   20.29   -8.67   -0.06   0.000   0.200   0.000    0.00
   1.000   20.78   -7.60   -0.33   0.000   0.200   0.000    0.00
   1.010   20.50   -8.45   -0.19   0.000   0.200   0.000    0.00
   1.020   20.85   -9.50    0.69   0.000   0.200   0.000    0.00
   1.030   20.81   -7.28    1.25   0.000   0.200   0.000    0.00
   1.040   21.12   -7.19    1.41   0.000   0.200   0.000    0.00
   1.050   21.18   -6.87    1.29   0.000   0.200   0.000    0.00
   1.060   21.05   -6.23    0.52   0.000   0.200   0.000    0.00
   1.070   20.62   -6.83    0.43   0.000   0.200   0.000    0.00
   1.080   20.47   -4.95    0.18   0.000   0.200   0.000    0.00
   1.090   20.89   -5.14   -0.31   0.000   0.200   0.000    0.00
   1.100   20.63   -7.02    0.38   0.000   0.200   0.000    0.00
   1.110   20.57   -9.77    0.27   0.000   0.200   0.000    0.00
   1.120   20.33   -9.38    0.55   0.000   0.200   0.000    0.00
   1.130   19.89   -8.31    0.41   0.000   0.200   0.000    0.00
   1.140   20.06  -10.14    0.07   0.000   0.200   0.000    0.00
   1.150   20.16   -9.50    0.98   0.000   0.200   0.000    0.00
   1.160   19.85  -11.47    0.91   0.000   0.200   0.000    0.00
   1.170   19.31  -11.91    1.41   0.000   0.200   0.000    0.00
   1.180   18.67  -12.45    1.23   0.000   0.200   0.000    0.00
   1.190   18.22  -13.53    1.05   0.000   0.200   0.000    0.00
   1.200   17.92  -13.52    0.56   0.000   0.200   0.000    0.00
   1.210   18.25  -15.40    0.34   0.000   0.200   0.000    0.00
   1.220   18.59  -15.79    0.67   0.000   0.200   0.000    0.00
   1.230   19.26  -17.36    0.84   0.000   0.200   0.000    0.00
   1.240   18.70  -15.94    1.49   0.000   0.200   0.000    0.00
   1.250   18.72  -13.87    0.26   0.000   0.200   0.000    0.00
   1.260   19.23  -12.49   -0.11   0.000   0.200   0.000    0.00
   1.270   19.86  -13.07   -0.06   0.000   0.200   0.000    0.00
   1.280   19.86  -12.44    0.58   0.000   0.200   0.000    0.00
   1.290   20.69  -12.09    0.08   0.000   0.200   0.000    0.00
   1.300   21.40  -10.95    0.19   0.000   0.200   0.000    0.00
   1.310   20.22  -12.77    0.11   0.000   0.200   0.000    0.00
   1.320   20.05  -12.63   -0.48   0.000   0.200   0.000    0.00
   1.330   19.78  -10.04   -1.46   0.000   0.200   0.000    0.00
   1.340   19.88   -8.53   -1.06   0.000   0.200   0.000    0.00
   1.350   19.08   -6.50   -1.49   0.000   0.200   0.000    0.00
   1.360   19.45   -7.88   -1.79   0.000   0.200   0.000    0.00
   1.370   19.91  -11.23   -1.73   0.000   0.200   0.000    0.00
   1.380   19.49  -11.76   -1.55   0.000   0.200   0.000    0.00
   1.390   19.21  -10.80   -0.89   0.000   0.200   0.000    0.00
   1.400   18.90   -9.34   -1.20   0.000   0.200   0.000    0.00
   1.410   19.22   -7.43   -1.23   0.000   0.200   0.000    0.00
   1.420   18.98   -8.98   -0.95   0.000   0.200   0.000    0.00
   1.430   18.44   -9.61   -0.76   0.000   0.200   0.000    0.00
   1.440   18.51   -9.27   -0.92   0.000   0.200   0.000    0.00
   1.450   18.32   -8.40   -0.94   0.000   0.200   0.000    0.00
   1.460   17.96   -9.15   -0.97   0.000   0.200   0.000    0.00
   1.470   17.87   -9.91   -0.80   0.000   0.200   0.000    0.00
   1.480   18.44   -7.29   -0.50   0.000   0.200   0.000    0.00
   1.490   18.62   -7.21   -0.03   0.000   0.200   0.000    0.00
   1.500   18.46   -5.82    0.24   0.000   0.200   0.000    0.00
   1.510   18.40   -5.51   -0.11   0.000   0.200   0.000    0.00
   1.520   18.97   -2.76   -0.56   0.000   0.200   0.000    0.00
   1.530   18.82   -5.45   -0.22   0.000   0.200   0.000    0.00
   1.540   19.09   -5.31    0.00   0.000   0.200   0.000    0.00
   1.550   18.83   -5.67    0.52   0.000   0.200   0.000    0.00
   1.560   17.92   -2.74    0.16   0.000   0.200   0.000    0.00
   1.570   17.65   -3.18   -0.26   0.000   0.200   0.000    0.00
   1.580   17.76   -5.72   -1.39   0.000   0.200   0.000    0.00
   1.590   18.09   -7.40   -1.14   0.000   0.200   0.000    0.00
   1.600   19.24   -6.84   -0.84   0.000   0.200   0.000    0.00
   1.610   19.26   -6.19    0.33   0.000   0.200   0.000    0.00
   1.620   19.28   -5.59   -0.48   0.000   0.200   0.000    0.00
   1.630   18.92   -5.25   -0.36   0.000   0.200   0.000    0.00
   1.640   19.58   -7.23   -0.54   0.000   0.200   0.000    0.00
   1.650   19.10   -9.12   -0.89   0.000   0.200   0.000    0.00
   1.660   19.02   -8.39   -0.72   0.000   0.200   0.000    0.00
   1.670   19.08   -7.31   -1.00   0.000   0.200   0.000    0.00
   1.680   18.87   -6.57   -0.95   0.000   0.200   0.000    0.00
   1.690   17.82   -8.53   -2.04   0.000   0.200   0.000    0.00
   1.700   17.65   -6.91   -1.48   0.000   0.200   0.000    0.00
   1.710   17.48   -7.65   -0.53   0.000   0.200   0.000    0.00
   1.720   18.16   -6.59   -0.66   0.000   0.200   0.000    0.00
   1.730   18.08   -7.32   -1.12   0.000   0.200   0.000    0.00
   1.740   18.08   -7.93   -1.21   0.000   0.200   0.000    0.00
   1.750   17.44   -8.26   -1.42   0.000   0.200   0.000    0.00
   1.760   17.84   -9.33   -1.97   0.000   0.200   0.000    0.00
   1.770   17.96   -7.53   -1.38   0.000   0.200   0.000    0.00
   1.780   18.02   -7.03   -1.92   0.000   0.200   0.000    0.00
   1.790   17.70   -8.80   -1.28   0.000   0.200   0.000    0.00
   1.800   18.42   -7.52   -0.97   0.000   0.200   0.000    0.00
   1.810   18.10   -7.92   -1.17   0.000   0.200   0.000    0.00
   1.820   17.70   -5.89   -1.30   0.000   0.200   0.000    0.00
   1.830   17.50   -6.20   -1.45   0.000   0.200   0.000    0.00
   1.840   17.89   -6.33   -1.04   0.000   0.200   0.000    0.00
   1.850   18.03   -4.59   -1.21   0.000   0.200   0.000    0.00
   1.860   17.75   -4.07   -1.45   0.000   0.200   0.000    0.00
   1.870   17.78   -3.91   -2.06   0.000   0.200   0.000    0.00
   1.880   17.55   -4.95   -1.91   0.000   0.200   0.000    0.00
   1.890   17.27   -3.99   -1.67   0.000   0.200   0.000    0.00
   1.900   16.31   -7.81   -1.83   0.000   0.200   0.000    0.00
   1.910   16.79   -9.74   -1.98   0.000   0.200   0.000    0.00
   1.920   16.88   -8.61   -1.88   0.000   0.200   0.000    0.00
   1.930   16.89   -8.15   -1.01   0.000   0.200   0.000    0.00
   1.940   16.85   -8.73   -1.13   0.000   0.200   0.000    0.00
   1.950   16.81   -7.17   -1.07   0.000   0.200   0.000    0.00
   1.960   16.79   -7.46   -1.63   0.000   0.200   0.000    0.00
   1.970   16.99   -6.47   -1.43   0.000   0.200   0.000    0.00
   1.980   16.67   -6.98   -1.62   0.000   0.200   0.000    0.00
   1.990   15.84   -6.44   -1.41   0.000   0.200   0.000    0.00
   2.000   15.77   -5.02   -1.83   0.000   0.200   0.000    0.00
   2.010   16.06   -4.24   -1.41   0.000   0.200   0.000    0.00
   2.020   15.75   -1.95   -0.84   0.000   0.200   0.000    0.00
   2.030   16.56   -0.54   -0.39   0.000   0.200   0.000    0.00
   2.040   15.95    0.01   -0.61   0.000   0.200   0.000    0.00
   2.050   15.97   -0.77   -0.42   0.000   0.200   0.000    0.00
   2.060   16.36   -1.68    0.26   0.000   0.200   0.000    0.00
   2.070   16.37   -2.44   -0.48   0.000   0.200   0.000    0.00
   2.080   16.18   -2.47   -0.57   0.000   0.200   0.000    0.00
   2.090   16.45   -5.15    0.15   0.000   0.200   0.000    0.00
   2.100   16.75   -3.37    0.14   0.000   0.200   0.000    0.00
   2.110   16.77   -1.43    0.51   0.000   0.200   0.000    0.00
   2.120   16.23   -2.27    1.25   0.000   0.200   0.000    0.00
   2.130   16.47   -3.46    1.67   0.000   0.200   0.000    0.00
   2.140   17.12   -2.35    1.43   0.000   0.200   0.000    0.00
   2.150   17.54   -3.57    1.48   0.000   0.200   0.000    0.00
   2.160   16.55   -0.35    1.93   0.000   0.200   0.000    0.00
   2.170   16.75   -1.67    2.60   0.000   0.200   0.000    0.00
   2.180   16.52    0.11    2.42   0.000   0.200   0.000    0.00
   2.190   16.57   -0.86    2.14   0.000   0.200   0.000    0.00
   2.200   17.31   -2.07    2.44   0.000   0.200   0.000    0.00
   2.210   16.67   -4.68    2.22   0.000   0.200   0.000    0.00
   2.220   16.76   -6.13    2.22   0.000   0.200   0.000    0.00
   2.230   16.30   -4.00    2.03   0.000   0.200   0.000    0.00
   2.240   16.42   -5.74    1.99   0.000   0.200   0.000    0.00
   2.250   16.84   -7.39    1.84   0.000   0.200   0.000    0.00
   2.260   17.04   -4.64    1.48   0.000   0.200   0.000    0.00
   2.270   16.68   -3.00    1.17   0.000   0.200   0.000    0.00
   2.280   16.51   -3.45    0.59   0.000   0.200   0.000    0.00
   2.290   16.99   -3.38    0.10   0.000   0.200   0.000    0.00
   2.300   16.54   -1.37   -0.08   0.000   0.200   0.000    0.00
   2.310   16.13   -1.50   -0.51   0.000   0.200   0.000    0.00
   2.320   16.24   -1.65   -0.45   0.000   0.200   0.000    0.00
   2.330   16.09   -2.45   -0.11   0.000   0.200   0.000    0.00
   2.340   15.45   -2.88   -0.31   0.000   0.200   0.000    0.00
   2.350   14.98   -1.89   -0.56   0.000   0.200   0.000    0.00
   2.360   15.55    1.85   -0.88   0.000   0.200   0.000    0.00
   2.370   15.39    1.64   -1.03   0.000   0.200   0.000    0.00
   2.380   15.35    2.27   -1.12   0.000   0.200   0.000    0.00
   2.390   15.53    2.78   -0.63   0.000   0.200   0.000    0.00
   2.400   14.58    3.36   -1.44   0.000   0.200   0.000    0.00
   2.410   14.09    3.75   -1.15   0.000   0.200   0.000    0.00
   2.420   13.73    4.92   -0.35   0.000   0.200   0.000    0.00
   2.430   13.70    5.02    0.07   0.000   0.200   0.000    0.00
   2.440   13.66    4.07    0.28   0.000   0.200   0.000    0.00
   2.450   14.25    2.20    0.04   0.000   0.200   0.000    0.00
   2.460   13.95    2.09    0.55   0.000   0.200   0.000    0.00
   2.470   14.41   -0.17    0.74   0.000   0.200   0.000    0.00
   2.480   14.25    0.57    0.12   0.000   0.200   0.000    0.00
   2.490   14.14   -0.83    0.19   0.000   0.200   0.000    0.00
   2.500   14.29    2.43    0.48   0.000   0.200   0.000    0.00
   2.510   14.57    0.26    0.77   0.000   0.200   0.000    0.00
   2.520   13.80    0.72    0.37   0.000   0.200   0.000    0.00
   2.530   13.48    3.02    0.47   0.000   0.200   0.000    0.00
   2.540   13.65    4.05   -0.34   0.000   0.200   0.000    0.00
   2.550   13.71   -1.52   -0.93   0.000   0.200   0.000    0.00
   2.560   14.05   -1.65   -1.23   0.000   0.200   0.000    0.00
   2.570   13.44    1.26   -1.22   0.000   0.200   0.000    0.00
   2.580   13.14    2.88   -1.79   0.000   0.200   0.000    0.00
   2.590   13.09    3.30   -1.17   0.000   0.200   0.000    0.00
   2.600   12.71    2.95   -1.47   0.000   0.200   0.000    0.00
   2.610   12.30    0.98   -1.47   0.000   0.200   0.000    0.00
   2.620   12.03    0.89   -1.03   0.000   0.200   0.000    0.00
   2.630   11.43    1.70   -0.76   0.000   0.200   0.000    0.00
   2.640   11.44    0.46   -0.29   0.000   0.200   0.000    0.00
   2.650   11.41   -0.80    0.42   0.000   0.200   0.000    0.00
   2.660   11.62    0.93    0.16   0.000   0.200   0.000    0.00
   2.670   11.33    2.49    0.05   0.000   0.200   0.000    0.00
   2.680   10.96    0.29    0.43   0.000   0.200   0.000    0.00
   2.690   11.22   -3.48    0.96   0.000   0.200   0.000    0.00
   2.700   11.70   -6.93    1.23   0.000   0.200   0.000    0.00
   2.710   12.08   -6.71    1.58   0.000   0.200   0.000    0.00
   2.720   11.80   -4.88    1.07   0.000   0.200   0.000    0.00
   2.730   11.30   -2.71    1.49   0.000   0.200   0.000    0.00
   2.740   11.40   -1.92    0.86   0.000   0.200   0.000    0.00
   2.750   11.26   -3.26    1.07   0.000   0.200   0.000    0.00
   2.760   11.16   -5.27    1.15   0.000   0.200   0.000    0.00
   2.770   11.04    1.53    0.64   0.000   0.200   0.000    0.00
   2.780   11.14    0.62    0.32   0.000   0.200   0.000    0.00
   2.790   11.33    0.38    0.29   0.000   0.200   0.000    0.00
   2.800   11.74   -0.13    0.31   0.000   0.200   0.000    0.00
   2.810   11.32    0.94    0.08   0.000   0.200   0.000    0.00
   2.820   10.47    1.14   -0.26   0.000   0.200   0.000    0.00
   2.830   10.84    0.47   -0.68   0.000   0.200   0.000    0.00
   2.840   11.42    2.88   -0.96   0.000   0.200   0.000    0.00
   2.850   10.97    5.56   -1.49   0.000   0.200   0.000    0.00
   2.860   11.26    7.49   -0.58   0.000   0.200   0.000    0.00
   2.870   11.89    7.35   -0.85   0.000   0.200   0.000    0.00
   2.880   12.40    6.22   -0.63   0.000   0.200   0.000    0.00
   2.890   11.74    3.99   -0.73   0.000   0.200   0.000    0.00
   2.900   11.64    7.35   -0.59   0.000   0.200   0.000    0.00
   2.910   11.99    9.33   -0.69   0.000   0.200   0.000    0.00
   2.920   11.82    5.89   -0.44   0.000   0.200   0.000    0.00
   2.930   10.91    1.40    0.25   0.000   0.200   0.000    0.00
   2.940   10.81    1.54    0.28   0.000   0.200   0.000    0.00
   2.950   11.52    3.80   -1.02   0.000   0.200   0.000    0.00
   2.960   11.84    1.22   -1.00   0.000   0.200   0.000    0.00
   2.970   11.62    1.29   -0.68   0.000   0.200   0.000    0.00
   2.980   11.52    0.87   -0.78   0.000   0.200   0.000    0.00
   2.990   12.24   -0.63   -0.48   0.000   0.200   0.000    0.00
   3.000   11.81   -0.60   -0.70   0.000   0.200   0.000    0.00
   3.010   11.19    0.40   -1.62   0.000   0.200   0.000    0.00
   3.020   11.26    0.01   -1.11   0.000   0.200   0.000    0.00
   3.030   10.85    1.97   -0.60   0.000   0.200   0.000    0.00
   3.040   11.03    5.34    0.56   0.000   0.200   0.000    0.00
   3.050   11.38    5.29    1.30   0.000   0.200   0.000    0.00
   3.060   12.32    4.00    1.71   0.000   0.200   0.000    0.00
   3.070   12.91    5.90    1.63   0.000   0.200   0.000    0.00
   3.080   12.59    9.13    1.67   0.000   0.200   0.000    0.00
   3.090   12.97    9.96    1.20   0.000   0.200   0.000    0.00
   3.100   12.94    9.72    1.85   0.000   0.200   0.000    0.00
   3.110   12.78    8.04    2.00   0.000   0.200   0.000    0.00
   3.120   13.25   10.27    1.24   0.000   0.200   0.000    0.00
   3.130   12.61    9.34    0.64   0.000   0.200   0.000    0.00
   3.140   11.90    8.42    1.01   0.000   0.200   0.000    0.00
   3.150   11.87    8.09    0.53   0.000   0.200   0.000    0.00
   3.160   11.78   10.32    0.24   0.000   0.200   0.000    0.00
   3.170   11.93   12.87    0.28   0.000   0.200   0.000    0.00
   3.180   11.68   13.03   -0.14   0.000   0.200   0.000    0.00
   3.190   11.73   10.84   -0.36   0.000   0.200   0.000    0.00
   3.200   11.97    9.13   -0.08   0.000   0.200   0.000    0.00
   3.210   12.59    6.54    0.08   0.000   0.200   0.000    0.00
   3.220   13.06   10.93    0.74   0.000   0.200   0.000    0.00
   3.230   12.58    9.54    0.85   0.000   0.200   0.000    0.00
   3.240   12.17   10.34    1.43   0.000   0.200   0.000    0.00
   3.250   12.36   10.68    1.39   0.000   0.200   0.000    0.00
   3.260   12.57    9.80    1.50   0.000   0.200   0.000    0.00
   3.270   12.32    9.39    1.96   0.000   0.200   0.000    0.00
   3.280   11.37    9.97    1.98   0.000   0.200   0.000    0.00
   3.290   11.68   12.17    2.20   0.000   0.200   0.000    0.00
   3.300   12.25   10.43    2.15   0.000   0.200   0.000    0.00
   3.310   12.16    8.24    1.60   0.000   0.200   0.000    0.00
   3.320   12.23   10.28    0.91   0.000   0.200   0.000    0.00
   3.330   11.97   10.89    0.23   0.000   0.200   0.000    0.00
   3.340   12.35   10.25   -0.44   0.000   0.200   0.000    0.00
   3.350   13.33   11.01    0.27   0.000   0.200   0.000    0.00
   3.360   13.25    9.13    0.11   0.000   0.200   0.000    0.00
   3.370   13.57   10.37   -0.03   0.000   0.200   0.000    0.00
   3.380   13.64    8.94   -0.96   0.000   0.200   0.000    0.00
   3.390   13.07    8.65   -1.36   0.000   0.200   0.000    0.00
   3.400   13.01    9.42   -1.01   0.000   0.200   0.000    0.00
   3.410   13.62    9.09   -1.67   0.000   0.200   0.000    0.00
   3.420   13.15    6.10   -1.86   0.000   0.200   0.000    0.00
   3.430   13.21    7.32   -2.06   0.000   0.200   0.000    0.00
   3.440   13.10    7.52   -2.32   0.000   0.200   0.000    0.00
   3.450   14.21    8.84   -2.00   0.000   0.200   0.000    0.00
   3.460   14.14    6.55   -2.74   0.000   0.200   0.000    0.00
   3.470   14.07    5.81   -2.11   0.000   0.200   0.000    0.00
   3.480   14.50    5.75   -1.35   0.000   0.200   0.000    0.00
   3.490   14.38    3.18   -1.95   0.000   0.200   0.000    0.00
   3.500   13.90    4.39   -2.09   0.000   0.200   0.000    0.00
   3.510   14.02    4.78   -2.22   0.000   0.200   0.000    0.00
   3.520   14.21    2.16   -2.98   0.000   0.200   0.000    0.00
   3.530   14.43    1.71   -3.45   0.000   0.200   0.000    0.00
   3.540   14.68    4.48   -2.75   0.000   0.200   0.000    0.00
   3.550   14.31    3.23   -2.27   0.000   0.200   0.000    0.00
   3.560   14.54    4.49   -2.29   0.000   0.200   0.000    0.00
   3.570   14.69    3.41   -2.76   0.000   0.200   0.000    0.00
   3.580   14.79    5.45   -2.51   0.000   0.200   0.000    0.00
   3.590   14.31    4.67   -1.89   0.000   0.200   0.000    0.00
   3.600   14.14    6.21   -1.87   0.000   0.200   0.000    0.00
   3.610   14.35    3.30   -2.22   0.000   0.200   0.000    0.00
   3.620   13.97    1.87   -2.26   0.000   0.200   0.000    0.00
   3.630   13.56    2.60   -2.87   0.000   0.200   0.000    0.00
   3.640   13.18    2.08   -2.98   0.000   0.200   0.000    0.00
   3.650   13.28    5.43   -1.57   0.000   0.200   0.000    0.00
   3.660   13.64    4.69   -1.59   0.000   0.200   0.000    0.00
   3.670   13.01    5.37   -1.86   0.000   0.200   0.000    0.00
   3.680   13.32    8.34   -2.32   0.000   0.200   0.000    0.00
   3.690   13.02    6.26   -2.69   0.000   0.200   0.000    0.00
   3.700   13.10    5.97   -1.54   0.000   0.200   0.000    0.00
   3.710   12.97    5.90   -1.65   0.000   0.200   0.000    0.00
   3.720   12.87    7.15   -2.13   0.000   0.200   0.000    0.00
   3.730   12.97    5.78   -2.05   0.000   0.200   0.000    0.00
   3.740   12.64    4.92   -1.55   0.000   0.200   0.000    0.00
   3.750   12.88    4.27   -2.12   0.000   0.200   0.000    0.00
   3.760   13.53    6.08   -1.54   0.000   0.200   0.000    0.00
   3.770   13.39    4.71   -1.37   0.000   0.200   0.000    0.00
   3.780   13.78    4.38   -2.18   0.000   0.200   0.000    0.00
   3.790   14.17    2.49   -2.07   0.000   0.200   0.000    0.00
   3.800   13.74   -0.78   -1.90   0.000   0.200   0.000    0.00
   3.810   13.66   -0.54   -1.94   0.000   0.200   0.000    0.00
   3.820   13.93   -1.61   -1.30   0.000   0.200   0.000    0.00
   3.830   13.73    2.43   -1.39   0.000   0.200   0.000    0.00
   3.840   14.18    2.68   -1.22   0.000   0.200   0.000    0.00
   3.850   14.23    2.03   -1.07   0.000   0.200   0.000    0.00
   3.860   14.43    2.11   -0.46   0.000   0.200   0.000    0.00
   3.870   14.46    0.43   -0.78   0.000   0.200   0.000    0.00
   3.880   14.56    0.32   -0.86   0.000   0.200   0.000    0.00
   3.890   14.76   -0.52   -1.02   0.000   0.200   0.000    0.00
   3.900   14.65   -0.74   -1.15   0.000   0.200   0.000    0.00
   3.910   14.68   -0.95   -0.77   0.000   0.200   0.000    0.00
   3.920   15.06   -1.32   -0.66   0.000   0.200   0.000    0.00
   3.930   14.40   -0.88   -1.22   0.000   0.200   0.000    0.00
   3.940   13.81    1.49   -1.24   0.000   0.200   0.000    0.00
   3.950   13.71    1.32   -1.25   0.000   0.200   0.000    0.00
   3.960   13.78    2.65   -1.71   0.000   0.200   0.000    0.00
   3.970   13.14    4.38   -1.51   0.000   0.200   0.000    0.00
   3.980   12.75    3.60   -0.66   0.000   0.200   0.000    0.00
   3.990   13.38    5.91   -0.90   0.000   0.200   0.000    0.00
   4.000   14.18    4.81   -1.28   0.000   0.200   0.000    0.00
   4.010   14.11    5.85   -1.14   0.000   0.200   0.000    0.00
   4.020   14.22    5.34   -1.20   0.000   0.200   0.000    0.00
   4.030   14.84    3.68   -1.18   0.000   0.200   0.000    0.00
   4.040   14.95    5.12   -1.29   0.000   0.200   0.000    0.00
   4.050   15.10    3.04   -0.77   0.000   0.200   0.000    0.00
   4.060   15.62    4.07   -0.85   0.000   0.200   0.000    0.00
   4.070   15.78    4.47   -1.11   0.000   0.200   0.000    0.00
   4.080   15.49    0.82   -1.04   0.000   0.200   0.000    0.00
   4.090   14.87    1.54   -0.92   0.000   0.200   0.000    0.00
   4.100   14.61   -0.06   -1.18   0.000   0.200   0.000    0.00
   4.110   15.17    1.79   -1.73   0.000   0.200   0.000    0.00
   4.120   14.98    1.61   -2.07   0.000   0.200   0.000    0.00
   4.130   15.04    1.20   -1.26   0.000   0.200   0.000    0.00
   4.140   14.60    3.19   -1.17   0.000   0.200   0.000    0.00
   4.150   14.65    6.78   -1.00   0.000   0.200   0.000    0.00
   4.160   14.42    5.41   -1.01   0.000   0.200   0.000    0.00
   4.170   13.50    4.64   -1.40   0.000   0.200   0.000    0.00
   4.180   13.95    5.19   -1.34   0.000   0.200   0.000    0.00
   4.190   14.13   -2.27   -1.26   0.000   0.200   0.000    0.00
   4.200   14.24   -3.00   -1.81   0.000   0.200   0.000    0.00
   4.210   14.52   -0.15   -2.35   0.000   0.200   0.000    0.00
   4.220   13.92   -0.48   -2.74   0.000   0.200   0.000    0.00
   4.230   13.93    0.41   -2.96   0.000   0.200   0.000    0.00
   4.240   13.97    1.64   -3.07   0.000   0.200   0.000    0.00
   4.250   14.41   -3.37   -2.43   0.000   0.200   0.000    0.00
   4.260   15.09   -6.58   -2.92   0.000   0.200   0.000    0.00
   4.270   14.91   -4.25   -3.10   0.000   0.200   0.000    0.00
   4.280   14.74   -3.70   -2.77   0.000   0.200   0.000    0.00
   4.290   14.49   -4.91   -3.61   0.000   0.200   0.000    0.00
   4.300   13.91   -8.84   -3.87   0.000   0.200   0.000    0.00
   4.310   13.99   -7.82   -3.82   0.000   0.200   0.000    0.00
   4.320   14.65   -5.65   -3.77   0.000   0.200   0.000    0.00
   4.330   14.18   -6.90   -3.96   0.000   0.200   0.000    0.00
   4.340   15.09   -4.83   -3.65   0.000   0.200   0.000    0.00
   4.350   15.26   -3.22   -3.24   0.000   0.200   0.000    0.00
   4.360   15.37   -2.01   -2.63   0.000   0.200   0.000    0.00
   4.370   14.94   -0.36   -2.27   0.000   0.200   0.000    0.00
   4.380   14.79    1.84   -1.93   0.000   0.200   0.000    0.00
   4.390   14.37   -2.97   -2.01   0.000   0.200   0.000    0.00
   4.400   13.86    0.15   -2.48   0.000   0.200   0.000    0.00
   4.410   13.61    1.39   -2.50   0.000   0.200   0.000    0.00
   4.420   13.58    1.08   -1.48   0.000   0.200   0.000    0.00
   4.430   14.00    0.33   -1.54   0.000   0.200   0.000    0.00
   4.440   14.48   -1.61   -0.85   0.000   0.200   0.000    0.00
   4.450   13.61   -3.62   -1.62   0.000   0.200   0.000    0.00
   4.460   13.70   -3.32   -1.93   0.000   0.200   0.000    0.00
   4.470   13.25   -4.80   -1.45   0.000   0.200   0.000    0.00
   4.480   13.53   -6.02   -1.10   0.000   0.200   0.000    0.00
   4.490   13.86   -6.95   -1.73   0.000   0.200   0.000    0.00
   4.500   13.58   -7.20   -1.81   0.000   0.200   0.000    0.00
   4.510   13.23   -7.74   -1.87   0.000   0.200   0.000    0.00
   4.520   13.30   -5.74   -1.01   0.000   0.200   0.000    0.00
   4.530   13.91   -4.81   -1.83   0.000   0.200   0.000    0.00
   4.540   13.24   -3.94   -1.89   0.000   0.200   0.000    0.00