! This hub-height wind-speed file was generated by TurbSim (v2.00.07a-bjj, 14-Jun-2016) on 18-Aug-2023 at 17:32:38.
!
! The requested statistics for this data were:
!    Mean Total Wind Speed =   20.000 m/s
!    Turbulence Intensity  =   14.420%
!
!   Time  HorSpd  WndDir  VerSpd  HorShr  VerShr  LnVShr  GstSpd
!  (sec)   (m/s)   (deg)   (m/s)     (-)     (-)     (-)   (m/s)
   0.000   22.11   -3.64    1.76   0.000   0.200   0.000    0.00
   0.010   22.08   -4.52    1.44   0.000   0.200   0.000    0.00
   0.020   21.63   -3.50    1.73   0.000   0.200   0.000    0.00
   0.030   21.30   -2.54    2.08   0.000   0.200   0.000    0.00
   0.040   21.02   -4.21    1.77   0.000   0.200   0.000    0.00
   0.050   21.63   -4.64    1.97   0.000   0.200   0.000    0.00
   0.060   21.82   -4.55    2.23   0.000   0.200   0.000    0.00
   0.070   21.86   -2.60    2.35   0.000   0.200   0.000    0.00
   0.080   21.33   -3.92    2.84   0.000   0.200   0.000    0.00
   0.090   21.46   -5.76    2.93   0.000   0.200   0.000    0.00
   0.100   22.08   -6.46    2.89   0.000   0.200   0.000    0.00
   0.110   21.82   -6.00    3.28   0.000   0.200   0.000    0.00
   0.120   22.11   -6.60    3.54   0.000   0.200   0.000    0.00
   0.130   22.53   -8.78    4.28   0.000   0.200   0.000    0.00
   0.140   22.65   -8.43    3.78   0.000   0.200   0.000    0.00
   0.150   22.54   -9.22    4.05   0.000   0.200   0.000    0.00
   0.160   22.30   -8.69    3.90   0.000   0.200   0.000    0.00
   0.170   22.69   -7.56    4.66   0.000   0.200   0.000    0.00
   0.180   22.32   -6.84    5.04   0.000   0.200   0.000    0.00
   0.190   22.22   -6.53    5.03   0.000   0.200   0.000    0.00
   0.200   22.51   -6.81    4.81   0.000   0.200   0.000    0.00
   0.210   22.02   -6.76    4.94   0.000   0.200   0.000    0.00
   0.220   21.47   -6.10    4.59   0.000   0.200   0.000    0.00
   0.230   21.65   -6.60    4.64   0.000   0.200   0.000    0.00
   0.240   21.60   -7.10    4.90   0.000   0.200   0.000    0.00
   0.250   21.72   -6.50    4.49   0.000   0.200   0.000    0.00
   0.260   22.05   -5.48    4.05   0.000   0.200   0.000    0.00
   0.270   21.80   -5.94    3.53   0.000   0.200   0.000    0.00
   0.280   22.07   -6.22    3.74   0.000   0.200   0.000    0.00
   0.290   21.64   -6.71    4.01   0.000   0.200   0.000    0.00
   0.300   21.49   -3.94    3.76   0.000   0.200   0.000    0.00
   0.310   21.74   -4.73    3.66   0.000   0.200   0.000    0.00
   0.320   21.55   -3.71    3.29   0.000   0.200   0.000    0.00
   0.330   21.20   -4.33    3.15   0.000   0.200   0.000    0.00
   0.340   21.19   -4.48    3.37   0.000   0.200   0.000    0.00
   0.350   21.19   -1.98    3.30   0.000   0.200   0.000    0.00
   0.360   21.65   -2.33    3.51   0.000   0.200   0.000    0.00
   0.370   21.65   -1.96    2.93   0.000   0.200   0.000    0.00
   0.380   21.50   -1.14    3.28   0.000   0.200   0.000    0.00
   0.390   20.85   -2.11    2.84   0.000   0.200   0.000    0.00
   0.400   20.95   -1.60    2.55   0.000   0.200   0.000    0.00
   0.410   20.78   -0.69    2.91   0.000   0.200   0.000    0.00
   0.420   21.06   -0.20    2.57   0.000   0.200   0.000    0.00
   0.430   21.34   -0.59    2.75   0.000   0.200   0.000    0.00
   0.440   21.48   -1.66    2.53   0.000   0.200   0.000    0.00
   0.450   21.10   -2.80    2.22   0.000   0.200   0.000    0.00
   0.460   21.43   -2.82    2.11   0.000   0.200   0.000    0.00
   0.470   22.08   -1.06    2.19   0.000   0.200   0.000    0.00
   0.480   22.08   -2.04    2.14   0.000   0.200   0.000    0.00
   0.490   22.41   -0.60    1.92   0.000   0.200   0.000    0.00
   0.500   23.08   -1.45    2.35   0.000   0.200   0.000    0.00
   0.510   23.22   -3.95    2.04   0.000   0.200   0.000    0.00
   0.520   22.91   -3.40    2.19   0.000   0.200   0.000    0.00
   0.530   23.28   -2.40    2.77   0.000   0.200   0.000    0.00
   0.540   23.18   -3.74    2.29   0.000   0.200   0.000    0.00
   0.550   23.08   -4.15    2.70   0.000   0.200   0.000    0.00
   0.560   23.09   -5.30    2.84   0.000   0.200   0.000    0.00
   0.570   23.35   -5.11    3.13   0.000   0.200   0.000    0.00
   0.580   23.75   -3.91    2.94   0.000   0.200   0.000    0.00
   0.590   23.53   -3.78    2.86   0.000   0.200   0.000    0.00
   0.600   23.52   -4.86    3.21   0.000   0.200   0.000    0.00
   0.610   23.44   -4.82    3.26   0.000   0.200   0.000    0.00
   0.620   23.61   -4.74    2.87   0.000   0.200   0.000    0.00
   0.630   23.20   -6.33    2.55   0.000   0.200   0.000    0.00
   0.640   23.09   -6.56    3.29   0.000   0.200   0.000    0.00
   0.650   23.22   -8.21    3.98   0.000   0.200   0.000    0.00
   0.660   22.92   -6.51    3.82   0.000   0.200   0.000    0.00
   0.670   23.04   -7.03    3.64   0.000   0.200   0.000    0.00
   0.680   22.71   -6.87    3.69   0.000   0.200   0.000    0.00
   0.690   22.73   -6.44    3.73   0.000   0.200   0.000    0.00
   0.700   22.21   -5.65    2.68   0.000   0.200   0.000    0.00
   0.710   22.71   -5.28    2.83   0.000   0.200   0.000    0.00
   0.720   22.64   -5.60    2.67   0.000   0.200   0.000    0.00
   0.730   22.37   -5.91    2.81   0.000   0.200   0.000    0.00
   0.740   22.53   -5.63    2.36   0.000   0.200   0.000    0.00
   0.750   21.94   -5.92    2.27   0.000   0.200   0.000    0.00
   0.760   21.79   -5.08    2.55   0.000   0.200   0.000    0.00
   0.770   22.17   -6.74    3.23   0.000   0.200   0.000    0.00
   0.780   22.35   -7.50    3.31   0.000   0.200   0.000    0.00
   0.790   22.12   -7.12    3.10   0.000   0.200   0.000    0.00
   0.800   21.29   -7.72    2.40   0.000   0.200   0.000    0.00
   0.810   21.18   -6.63    2.63   0.000   0.200   0.000    0.00
   0.820   20.82   -6.06    3.20   0.000   0.200   0.000    0.00
   0.830   21.17   -6.12    3.29   0.000   0.200   0.000    0.00
   0.840   21.56   -4.43    3.36   0.000   0.200   0.000    0.00
   0.850   21.33   -4.56    3.12   0.000   0.200   0.000    0.00
   0.860   21.27   -3.89    3.79   0.000   0.200   0.000    0.00
   0.870   21.22   -3.00    3.82   0.000   0.200   0.000    0.00
   0.880   21.37   -2.21    4.04   0.000   0.200   0.000    0.00
   0.890   21.50   -2.00    3.84   0.000   0.200   0.000    0.00
   0.900   21.75   -1.44    3.79   0.000   0.200   0.000    0.00
   0.910   21.76   -2.45    3.56   0.000   0.200   0.000    0.00
   0.920   21.75    0.11    3.79   0.000   0.200   0.000    0.00
   0.930   21.74   -0.60    3.57   0.000   0.200   0.000    0.00
   0.940   21.93    0.02    3.34   0.000   0.200   0.000    0.00
   0.950   21.90    0.23    2.97   0.000   0.200   0.000    0.00
   0.960   22.15   -1.56    3.51   0.000   0.200   0.000    0.00
   0.970   22.61   -0.40    3.39   0.000   0.200   0.000    0.00
   0.980   22.47   -0.76    3.46   0.000   0.200   0.000    0.00
   0.990   22.21   -1.69    3.56   0.000   0.200   0.000    0.00
   1.000   21.99   -1.56    3.20   0.000   0.200   0.000    0.00
   1.010   22.03   -0.73    3.69   0.000   0.200   0.000    0.00
   1.020   21.65    0.11    3.48   0.000   0.200   0.000    0.00
   1.030   21.45    0.67    3.46   0.000   0.200   0.000    0.00
   1.040   21.03    0.54    3.48   0.000   0.200   0.000    0.00
   1.050   20.67   -0.12    3.99   0.000   0.200   0.000    0.00
   1.060   20.46   -0.33    4.47   0.000   0.200   0.000    0.00
   1.070   20.40   -1.69    4.39   0.000   0.200   0.000    0.00
   1.080   20.34   -2.99    4.38   0.000   0.200   0.000    0.00
   1.090   21.02   -2.54    4.30   0.000   0.200   0.000    0.00
   1.100   20.51   -2.12    4.49   0.000   0.200   0.000    0.00
   1.110   20.57   -1.87    4.45   0.000   0.200   0.000    0.00
   1.120   20.65   -2.41    4.44   0.000   0.200   0.000    0.00
   1.130   20.84   -3.11    4.61   0.000   0.200   0.000    0.00
   1.140   20.64   -4.01    4.14   0.000   0.200   0.000    0.00
   1.150   20.09   -5.68    3.81   0.000   0.200   0.000    0.00
   1.160   20.00   -6.20    3.56   0.000   0.200   0.000    0.00
   1.170   20.45   -7.03    3.61   0.000   0.200   0.000    0.00
   1.180   20.07   -5.17    4.06   0.000   0.200   0.000    0.00
   1.190   20.20   -4.67    3.87   0.000   0.200   0.000    0.00
   1.200   20.06   -6.13    4.29   0.000   0.200   0.000    0.00
   1.210   20.08   -7.31    4.47   0.000   0.200   0.000    0.00
   1.220   20.34   -7.04    4.75   0.000   0.200   0.000    0.00
   1.230   20.09   -7.55    5.08   0.000   0.200   0.000    0.00
   1.240   20.20   -8.53    5.34   0.000   0.200   0.000    0.00
   1.250   20.33   -8.91    5.43   0.000   0.200   0.000    0.00
   1.260   20.14   -9.55    4.86   0.000   0.200   0.000    0.00
   1.270   20.58   -9.57    4.68   0.000   0.200   0.000    0.00
   1.280   20.63   -9.03    4.40   0.000   0.200   0.000    0.00
   1.290   20.69   -8.85    4.48   0.000   0.200   0.000    0.00
   1.300   20.19   -9.76    4.86   0.000   0.200   0.000    0.00
   1.310   20.51   -8.02    4.96   0.000   0.200   0.000    0.00
   1.320   20.91   -6.99    4.81   0.000   0.200   0.000    0.00
   1.330   20.59   -5.23    4.30   0.000   0.200   0.000    0.00
   1.340   20.32   -5.98    4.66   0.000   0.200   0.000    0.00
   1.350   20.29   -5.41    5.04   0.000   0.200   0.000    0.00
   1.360   21.02   -4.57    5.03   0.000   0.200   0.000    0.00
   1.370   21.31   -2.96    5.07   0.000   0.200   0.000    0.00
   1.380   21.07   -2.74    5.05   0.000   0.200   0.000    0.00
   1.390   21.62   -2.19    5.26   0.000   0.200   0.000    0.00
   1.400   21.83   -2.19    5.68   0.000   0.200   0.000    0.00
   1.410   22.02   -1.37    4.81   0.000   0.200   0.000    0.00
   1.420   22.00   -2.58    4.30   0.000   0.200   0.000    0.00
   1.430   21.83   -2.53    5.17   0.000   0.200   0.000    0.00
   1.440   22.08   -2.80    5.53   0.000   0.200   0.000    0.00
   1.450   21.71   -2.05    4.93   0.000   0.200   0.000    0.00
   1.460   21.70   -0.91    4.64   0.000   0.200   0.000    0.00
   1.470   21.47    0.05    4.77   0.000   0.200   0.000    0.00
   1.480   21.76    2.02    4.84   0.000   0.200   0.000    0.00
   1.490   21.14    0.31    4.96   0.000   0.200   0.000    0.00
   1.500   21.37   -0.52    4.53   0.000   0.200   0.000    0.00
   1.510   21.35    1.20    4.31   0.000   0.200   0.000    0.00
   1.520   21.31    1.87    3.91   0.000   0.200   0.000    0.00
   1.530   21.69    2.56    3.64   0.000   0.200   0.000    0.00
   1.540   21.08    4.45    3.88   0.000   0.200   0.000    0.00
   1.550   21.15    3.36    3.71   0.000   0.200   0.000    0.00
   1.560   21.37    3.27    3.64   0.000   0.200   0.000    0.00
   1.570   20.77    2.53    3.57   0.000   0.200   0.000    0.00
   1.580   21.26    0.75    3.86   0.000   0.200   0.000    0.00
   1.590   21.04   -0.65    3.93   0.000   0.200   0.000    0.00
   1.600   21.01    1.80    3.74   0.000   0.200   0.000    0.00
   1.610   20.45    2.28    3.54   0.000   0.200   0.000    0.00
   1.620   20.54    2.27    3.45   0.000   0.200   0.000    0.00
   1.630   20.08    2.26    3.31   0.000   0.200   0.000    0.00
   1.640   21.12    2.25    3.57   0.000   0.200   0.000    0.00
   1.650   20.79    2.01    3.53   0.000   0.200   0.000    0.00
   1.660   20.92    2.49    3.38   0.000   0.200   0.000    0.00
   1.670   21.16    3.27    4.43   0.000   0.200   0.000    0.00
   1.680   21.10    1.58    4.05   0.000   0.200   0.000    0.00
   1.690   21.26   -0.77    4.11   0.000   0.200   0.000    0.00
   1.700   20.70   -1.23    4.03   0.000   0.200   0.000    0.00
   1.710   21.15   -1.85    3.68   0.000   0.200   0.000    0.00
   1.720   21.42   -2.19    3.63   0.000   0.200   0.000    0.00
   1.730   21.56   -3.99    3.56   0.000   0.200   0.000    0.00
   1.740   21.03   -2.76    3.06   0.000   0.200   0.000    0.00
   1.750   21.00   -0.33    3.29   0.000   0.200   0.000    0.00
   1.760   20.91    1.67    3.25   0.000   0.200   0.000    0.00
   1.770   21.04    1.49    3.52   0.000   0.200   0.000    0.00
   1.780   21.02   -1.15    3.30   0.000   0.200   0.000    0.00
   1.790   20.72   -2.04    3.53   0.000   0.200   0.000    0.00
   1.800   19.89   -1.40    4.01   0.000   0.200   0.000    0.00
   1.810   19.83   -0.70    3.84   0.000   0.200   0.000    0.00
   1.820   19.54   -2.49    3.47   0.000   0.200   0.000    0.00
   1.830   20.08   -1.79    3.67   0.000   0.200   0.000    0.00
   1.840   20.72   -3.51    3.95   0.000   0.200   0.000    0.00
   1.850   20.55   -3.68    3.49   0.000   0.200   0.000    0.00
   1.860   20.55   -2.37    3.46   0.000   0.200   0.000    0.00
   1.870   20.61   -0.67    3.21   0.000   0.200   0.000    0.00
   1.880   20.68    0.63    3.62   0.000   0.200   0.000    0.00
   1.890   20.55   -0.10    3.59   0.000   0.200   0.000    0.00
   1.900   20.27    1.04    3.24   0.000   0.200   0.000    0.00
   1.910   20.59    2.11    2.91   0.000   0.200   0.000    0.00
   1.920   20.39    1.11    3.52   0.000   0.200   0.000    0.00
   1.930   20.17    0.55    3.91   0.000   0.200   0.000    0.00
   1.940   20.83    0.41    3.80   0.000   0.200   0.000    0.00
   1.950   20.81    0.78    4.02   0.000   0.200   0.000    0.00
   1.960   20.71    0.87    3.57   0.000   0.200   0.000    0.00
   1.970   20.85   -0.27    3.79   0.000   0.200   0.000    0.00
   1.980   20.70   -0.14    3.83   0.000   0.200   0.000    0.00
   1.990   20.65    0.18    3.83   0.000   0.200   0.000    0.00
   2.000   20.72   -1.60    3.98   0.000   0.200   0.000    0.00
   2.010   20.36   -2.20    3.69   0.000   0.200   0.000    0.00
   2.020   20.18   -2.43    3.63   0.000   0.200   0.000    0.00
   2.030   19.66   -5.72    3.46   0.000   0.200   0.000    0.00
   2.040   19.68   -6.33    3.72   0.000   0.200   0.000    0.00
   2.050   20.80   -4.90    3.78   0.000   0.200   0.000    0.00
   2.060   21.39   -3.48    4.09   0.000   0.200   0.000    0.00
   2.070   22.22   -4.93    3.74   0.000   0.200   0.000    0.00
   2.080   21.69   -5.45    2.91   0.000   0.200   0.000    0.00
   2.090   21.17   -4.20    3.02   0.000   0.200   0.000    0.00
   2.100   21.13   -4.34    2.93   0.000   0.200   0.000    0.00
   2.110   20.89   -3.30    2.84   0.000   0.200   0.000    0.00
   2.120   21.15   -2.82    3.13   0.000   0.200   0.000    0.00
   2.130   21.17   -3.19    3.38   0.000   0.200   0.000    0.00
   2.140   21.01   -2.91    3.10   0.000   0.200   0.000    0.00
   2.150   21.35   -2.15    3.12   0.000   0.200   0.000    0.00
   2.160   20.79   -1.29    3.06   0.000   0.200   0.000    0.00
   2.170   20.39   -0.64    2.62   0.000   0.200   0.000    0.00
   2.180   20.93   -1.02    3.27   0.000   0.200   0.000    0.00
   2.190   20.97   -1.02    3.02   0.000   0.200   0.000    0.00
   2.200   20.62    1.03    2.94   0.000   0.200   0.000    0.00
   2.210   20.40    2.78    3.12   0.000   0.200   0.000    0.00
   2.220   20.17    2.74    3.38   0.000   0.200   0.000    0.00
   2.230   20.06    3.24    3.38   0.000   0.200   0.000    0.00
   2.240   19.95    2.24    3.85   0.000   0.200   0.000    0.00
   2.250   19.73    3.09    3.42   0.000   0.200   0.000    0.00
   2.260   19.72    1.96    3.29   0.000   0.200   0.000    0.00
   2.270   20.11    2.20    3.05   0.000   0.200   0.000    0.00
   2.280   19.98    3.22    3.69   0.000   0.200   0.000    0.00
   2.290   20.10    2.98    3.58   0.000   0.200   0.000    0.00
   2.300   19.78    3.28    3.70   0.000   0.200   0.000    0.00
   2.310   20.35    1.90    3.57   0.000   0.200   0.000    0.00
   2.320   21.07    1.23    3.87   0.000   0.200   0.000    0.00
   2.330   21.06    0.66    3.74   0.000   0.200   0.000    0.00
   2.340   20.99   -0.64    3.76   0.000   0.200   0.000    0.00
   2.350   20.86   -0.07    4.08   0.000   0.200   0.000    0.00
   2.360   20.20   -0.60    4.02   0.000   0.200   0.000    0.00
   2.370   20.20   -0.95    3.97   0.000   0.200   0.000    0.00
   2.380   20.19    0.23    3.40   0.000   0.200   0.000    0.00
   2.390   20.37    1.55    3.14   0.000   0.200   0.000    0.00
   2.400   20.20   -0.37    3.46   0.000   0.200   0.000    0.00
   2.410   20.19   -1.45    3.15   0.000   0.200   0.000    0.00
   2.420   20.41   -0.15    2.79   0.000   0.200   0.000    0.00
   2.430   20.58   -0.98    2.91   0.000   0.200   0.000    0.00
   2.440   20.11   -1.45    3.30   0.000   0.200   0.000    0.00
   2.450   20.64   -2.18    3.55   0.000   0.200   0.000    0.00
   2.460   21.05   -1.78    3.71   0.000   0.200   0.000    0.00
   2.470   21.06   -2.57    3.71   0.000   0.200   0.000    0.00
   2.480   21.45   -1.61    2.88   0.000   0.200   0.000    0.00
   2.490   21.24   -3.00    2.81   0.000   0.200   0.000    0.00
   2.500   21.23   -4.54    2.88   0.000   0.200   0.000    0.00
   2.510   21.50   -5.66    2.95   0.000   0.200   0.000    0.00
   2.520   21.57   -4.72    2.98   0.000   0.200   0.000    0.00
   2.530   20.97   -4.96    2.95   0.000   0.200   0.000    0.00
   2.540   21.31   -3.55    2.03   0.000   0.200   0.000    0.00
   2.550   20.70   -7.03    2.02   0.000   0.200   0.000    0.00
   2.560   20.75   -5.36    1.93   0.000   0.200   0.000    0.00
   2.570   20.67   -3.65    2.00   0.000   0.200   0.000    0.00
   2.580   21.02   -2.94    2.55   0.000   0.200   0.000    0.00
   2.590   21.50   -3.71    2.18   0.000   0.200   0.000    0.00
   2.600   21.28   -3.76    2.27   0.000   0.200   0.000    0.00
   2.610   21.14   -3.63    2.47   0.000   0.200   0.000    0.00
   2.620   21.49   -2.24    2.40   0.000   0.200   0.000    0.00
   2.630   20.89   -2.66    2.18   0.000   0.200   0.000    0.00
   2.640   20.25   -3.71    2.67   0.000   0.200   0.000    0.00
   2.650   20.26   -4.90    2.26   0.000   0.200   0.000    0.00
   2.660   20.00   -6.07    1.82   0.000   0.200   0.000    0.00
   2.670   20.00   -5.74    1.47   0.000   0.200   0.000    0.00
   2.680   19.87   -7.32    0.90   0.000   0.200   0.000    0.00
   2.690   20.05   -7.60    0.62   0.000   0.200   0.000    0.00
   2.700   19.82   -5.79    0.11   0.000   0.200   0.000    0.00
   2.710   19.63   -5.36    0.15   0.000   0.200   0.000    0.00
   2.720   19.96   -5.72    0.42   0.000   0.200   0.000    0.00
   2.730   19.17   -6.33    0.79   0.000   0.200   0.000    0.00
   2.740   18.97   -4.61    1.15   0.000   0.200   0.000    0.00
   2.750   18.87   -4.01    0.66   0.000   0.200   0.000    0.00
   2.760   19.11   -5.00    0.51   0.000   0.200   0.000    0.00
   2.770   19.35   -5.15    0.30   0.000   0.200   0.000    0.00
   2.780   19.08   -5.19    0.29   0.000   0.200   0.000    0.00
   2.790   17.99   -4.35    0.29   0.000   0.200   0.000    0.00
   2.800   17.89   -4.95    0.14   0.000   0.200   0.000    0.00
   2.810   18.24   -6.67    0.40   0.000   0.200   0.000    0.00
   2.820   18.56   -7.09    0.51   0.000   0.200   0.000    0.00
   2.830   18.47   -6.74    0.37   0.000   0.200   0.000    0.00
   2.840   18.97   -4.55   -0.08   0.000   0.200   0.000    0.00
   2.850   19.21   -5.68    0.11   0.000   0.200   0.000    0.00
   2.860   19.58   -5.06    0.50   0.000   0.200   0.000    0.00
   2.870   19.50   -6.93    0.91   0.000   0.200   0.000    0.00
   2.880   19.38   -5.68    0.46   0.000   0.200   0.000    0.00
   2.890   19.58   -3.24    0.66   0.000   0.200   0.000    0.00
   2.900   19.55   -0.91    0.60   0.000   0.200   0.000    0.00
   2.910   19.05   -0.77    0.36   0.000   0.200   0.000    0.00
   2.920   18.65   -0.54    0.30   0.000   0.200   0.000    0.00
   2.930   18.79   -0.46    0.47   0.000   0.200   0.000    0.00
   2.940   18.59    0.29   -0.27   0.000   0.200   0.000    0.00
   2.950   18.42   -0.64   -0.33   0.000   0.200   0.000    0.00
   2.960   18.35    0.80   -0.40   0.000   0.200   0.000    0.00
   2.970   18.55    2.20   -0.53   0.000   0.200   0.000    0.00
   2.980   18.35    0.42   -0.22   0.000   0.200   0.000    0.00
   2.990   18.11   -1.88    0.01   0.000   0.200   0.000    0.00
   3.000   17.96   -1.40    0.61   0.000   0.200   0.000    0.00
   3.010   18.37   -2.90    0.17   0.000   0.200   0.000    0.00
   3.020   18.09   -2.48   -0.58   0.000   0.200   0.000    0.00
   3.030   18.29    0.49   -0.55   0.000   0.200   0.000    0.00
   3.040   18.00   -0.30   -0.37   0.000   0.200   0.000    0.00
   3.050   18.00    1.34    0.05   0.000   0.200   0.000    0.00
   3.060   17.55    2.01    0.25   0.000   0.200   0.000    0.00
   3.070   17.87    1.49    0.74   0.000   0.200   0.000    0.00
   3.080   17.82    0.70    0.49   0.000   0.200   0.000    0.00
   3.090   18.05    1.46    0.51   0.000   0.200   0.000    0.00
   3.100   18.57    1.55    0.52   0.000   0.200   0.000    0.00
   3.110   18.77    2.36    0.30   0.000   0.200   0.000    0.00
   3.120   18.43    2.44    0.47   0.000   0.200   0.000    0.00
   3.130   18.18    1.96    0.65   0.000   0.200   0.000    0.00
   3.140   18.28    1.54    0.71   0.000   0.200   0.000    0.00
   3.150   18.16    2.13    0.32   0.000   0.200   0.000    0.00
   3.160   18.74    1.79   -0.09   0.000   0.200   0.000    0.00
   3.170   18.45    1.23   -0.69   0.000   0.200   0.000    0.00
   3.180   18.20    1.84   -1.28   0.000   0.200   0.000    0.00
   3.190   18.16    1.07   -2.00   0.000   0.200   0.000    0.00
   3.200   18.07    0.90   -1.55   0.000   0.200   0.000    0.00
   3.210   18.21    0.55   -0.89   0.000   0.200   0.000    0.00
   3.220   18.13    1.16   -1.09   0.000   0.200   0.000    0.00
   3.230   18.14   -0.09   -1.03   0.000   0.200   0.000    0.00
   3.240   18.61   -0.16   -0.56   0.000   0.200   0.000    0.00
   3.250   19.12   -0.25   -1.10   0.000   0.200   0.000    0.00
   3.260   18.69    0.51   -1.10   0.000   0.200   0.000    0.00
   3.270   18.86   -0.56   -0.86   0.000   0.200   0.000    0.00
   3.280   18.63   -0.05   -1.30   0.000   0.200   0.000    0.00
   3.290   18.95    0.72   -0.79   0.000   0.200   0.000    0.00
   3.300   19.15    0.86   -0.75   0.000   0.200   0.000    0.00
   3.310   19.43   -0.69   -0.35   0.000   0.200   0.000    0.00
   3.320   20.16    0.96   -0.58   0.000   0.200   0.000    0.00
   3.330   20.15    1.20   -0.37   0.000   0.200   0.000    0.00
   3.340   19.60    0.53   -0.83   0.000   0.200   0.000    0.00
   3.350   19.76   -0.15   -0.79   0.000   0.200   0.000    0.00
   3.360   20.37    0.36   -1.14   0.000   0.200   0.000    0.00
   3.370   20.06    0.48   -1.15   0.000   0.200   0.000    0.00
   3.380   19.99   -0.43   -0.96   0.000   0.200   0.000    0.00
   3.390   19.43   -0.20   -1.17   0.000   0.200   0.000    0.00
   3.400   19.54    0.52   -1.16   0.000   0.200   0.000    0.00
   3.410   19.67   -0.47   -1.27   0.000   0.200   0.000    0.00
   3.420   19.42   -0.54   -1.46   0.000   0.200   0.000    0.00
   3.430   19.16   -0.02   -1.07   0.000   0.200   0.000    0.00
   3.440   18.97    0.40   -0.68   0.000   0.200   0.000    0.00
   3.450   18.88    0.48   -0.34   0.000   0.200   0.000    0.00
   3.460   19.44    0.86   -0.45   0.000   0.200   0.000    0.00
   3.470   19.40    1.61   -0.61   0.000   0.200   0.000    0.00
   3.480   19.34    1.10   -0.80   0.000   0.200   0.000    0.00
   3.490   19.03    1.29   -1.11   0.000   0.200   0.000    0.00
   3.500   19.23    1.50   -0.86   0.000   0.200   0.000    0.00
   3.510   19.19    2.70   -1.27   0.000   0.200   0.000    0.00
   3.520   19.00    2.49   -1.28   0.000   0.200   0.000    0.00
   3.530   19.02    1.28   -1.83   0.000   0.200   0.000    0.00
   3.540   19.33    2.73   -1.87   0.000   0.200   0.000    0.00
   3.550   19.52    2.99   -1.16   0.000   0.200   0.000    0.00
   3.560   20.28    3.49   -1.05   0.000   0.200   0.000    0.00
   3.570   20.25    4.85   -0.31   0.000   0.200   0.000    0.00
   3.580   20.08    4.52   -1.15   0.000   0.200   0.000    0.00
   3.590   19.76    4.01   -2.01   0.000   0.200   0.000    0.00
   3.600   19.99    3.83   -1.69   0.000   0.200   0.000    0.00
   3.610   20.28    4.32   -2.02   0.000   0.200   0.000    0.00
   3.620   20.53    2.98   -2.15   0.000   0.200   0.000    0.00
   3.630   20.57    2.52   -2.73   0.000   0.200   0.000    0.00
   3.640   20.15    1.38   -2.49   0.000   0.200   0.000    0.00
   3.650   19.83    1.64   -2.43   0.000   0.200   0.000    0.00
   3.660   20.54    1.08   -2.88   0.000   0.200   0.000    0.00
   3.670   20.58    1.08   -3.21   0.000   0.200   0.000    0.00
   3.680   20.75    0.71   -3.55   0.000   0.200   0.000    0.00
   3.690   20.77    3.38   -3.46   0.000   0.200   0.000    0.00
   3.700   20.61    2.62   -3.40   0.000   0.200   0.000    0.00
   3.710   21.27    3.37   -4.02   0.000   0.200   0.000    0.00
   3.720   21.02    1.00   -4.00   0.000   0.200   0.000    0.00
   3.730   21.04   -0.51   -4.25   0.000   0.200   0.000    0.00
   3.740   20.92   -0.88   -3.38   0.000   0.200   0.000    0.00
   3.750   20.73    0.35   -3.05   0.000   0.200   0.000    0.00
   3.760   20.35   -0.92   -3.55   0.000   0.200   0.000    0.00
   3.770   20.92    0.44   -3.83   0.000   0.200   0.000    0.00
   3.780   21.40    1.04   -2.88   0.000   0.200   0.000    0.00
   3.790   21.53    0.76   -2.44   0.000   0.200   0.000    0.00
   3.800   21.56   -0.30   -2.32   0.000   0.200   0.000    0.00
   3.810   21.68    0.13   -2.52   0.000   0.200   0.000    0.00
   3.820   21.93   -0.42   -3.21   0.000   0.200   0.000    0.00
   3.830   21.79   -0.86   -3.58   0.000   0.200   0.000    0.00
   3.840   21.49    0.20   -3.64   0.000   0.200   0.000    0.00
   3.850   21.08   -0.70   -3.34   0.000   0.200   0.000    0.00
   3.860   21.03   -0.20   -3.97   0.000   0.200   0.000    0.00
   3.870   20.83    0.74   -4.39   0.000   0.200   0.000    0.00
   3.880   20.59    0.13   -4.18   0.000   0.200   0.000    0.00
   3.890   20.96    0.11   -4.20   0.000   0.200   0.000    0.00
   3.900   20.46   -0.69   -4.42   0.000   0.200   0.000    0.00
   3.910   20.14   -3.94   -4.78   0.000   0.200   0.000    0.00
   3.920   20.48   -5.21   -4.66   0.000   0.200   0.000    0.00
   3.930   20.75   -4.74   -4.79   0.000   0.200   0.000    0.00
   3.940   21.14   -5.13   -4.44   0.000   0.200   0.000    0.00
   3.950   21.00   -5.41   -4.14   0.000   0.200   0.000    0.00
   3.960   20.85   -6.70   -4.03   0.000   0.200   0.000    0.00
   3.970   20.52   -6.95   -3.73   0.000   0.200   0.000    0.00
   3.980   20.43   -6.07   -3.87   0.000   0.200   0.000    0.00
   3.990   20.55   -5.00   -3.90   0.000   0.200   0.000    0.00
   4.000   21.04   -6.40   -3.27   0.000   0.200   0.000    0.00
   4.010   21.45   -6.64   -3.41   0.000   0.200   0.000    0.00
   4.020   21.74   -6.93   -3.31   0.000   0.200   0.000    0.00
   4.030   21.60   -6.25   -3.45   0.000   0.200   0.000    0.00
   4.040   21.13   -5.10   -3.68   0.000   0.200   0.000    0.00
   4.050   21.05   -5.49   -3.67   0.000   0.200   0.000    0.00
   4.060   21.85   -4.70   -2.85   0.000   0.200   0.000    0.00
   4.070   21.62   -5.57   -3.35   0.000   0.200   0.000    0.00
   4.080   21.88   -5.58   -3.55   0.000   0.200   0.000    0.00
   4.090   21.99   -4.62   -3.37   0.000   0.200   0.000    0.00
   4.100   21.95   -5.90   -3.33   0.000   0.200   0.000    0.00
   4.110   22.45   -6.49   -3.26   0.000   0.200   0.000    0.00
   4.120   22.31   -6.15   -2.79   0.000   0.200   0.000    0.00
   4.130   22.08   -5.57   -3.33   0.000   0.200   0.000    0.00
   4.140   22.05   -4.95   -4.15   0.000   0.200   0.000    0.00
   4.150   21.73   -4.91   -3.88   0.000   0.200   0.000    0.00
   4.160   21.24   -7.60   -3.22   0.000   0.200   0.000    0.00
   4.170   21.42   -7.60   -3.45   0.000   0.200   0.000    0.00
   4.180   21.37   -7.68   -3.51   0.000   0.200   0.000    0.00
   4.190   21.71   -6.14   -3.03   0.000   0.200   0.000    0.00
   4.200   21.44   -4.87   -2.96   0.000   0.200   0.000    0.00
   4.210   21.86   -4.26   -3.58   0.000   0.200   0.000    0.00
   4.220   21.65   -4.08   -3.44   0.000   0.200   0.000    0.00
   4.230   21.79   -2.26   -3.80   0.000   0.200   0.000    0.00
   4.240   21.25   -0.96   -4.42   0.000   0.200   0.000    0.00
   4.250   21.65    0.61   -3.58   0.000   0.200   0.000    0.00
   4.260   20.91    0.04   -3.59   0.000   0.200   0.000    0.00
   4.270   20.19    0.03   -2.91   0.000   0.200   0.000    0.00
   4.280   20.29   -0.99   -2.71   0.000   0.200   0.000    0.00
   4.290   19.80   -2.87   -2.31   0.000   0.200   0.000    0.00
   4.300   19.74   -3.68   -2.61   0.000   0.200   0.000    0.00
   4.310   20.37   -1.90   -2.90   0.000   0.200   0.000    0.00
   4.320   21.02   -1.15   -3.18   0.000   0.200   0.000    0.00
   4.330   21.06   -1.55   -2.85   0.000   0.200   0.000    0.00
   4.340   21.28   -1.64   -3.03   0.000   0.200   0.000    0.00
   4.350   21.32   -2.73   -2.82   0.000   0.200   0.000    0.00
   4.360   21.02   -2.10   -2.83   0.000   0.200   0.000    0.00
   4.370   21.01   -1.13   -3.11   0.000   0.200   0.000    0.00
   4.380   21.22   -2.12   -3.03   0.000   0.200   0.000    0.00
   4.390   21.31   -1.89   -3.35   0.000   0.200   0.000    0.00
   4.400   21.53   -1.98   -3.05   0.000   0.200   0.000    0.00
   4.410   21.77   -3.93   -2.60   0.000   0.200   0.000    0.00
   4.420   21.43   -4.32   -2.75   0.000   0.200   0.000    0.00
   4.430   21.84   -4.42   -2.44   0.000   0.200   0.000    0.00
   4.440   21.72   -4.26   -2.39   0.000   0.200   0.000    0.00
   4.450   21.40   -3.88   -2.67   0.000   0.200   0.000    0.00
   4.460   21.41   -5.71   -2.35   0.000   0.200   0.000    0.00
   4.470   21.02   -6.15   -2.23   0.000   0.200   0.000    0.00
   4.480   20.95   -5.71   -2.23   0.000   0.200   0.000    0.00
   4.490   21.02   -4.21   -1.77   0.000   0.200   0.000    0.00
   4.500   20.90   -1.94   -1.60   0.000   0.200   0.000    0.00
   4.510   21.20   -1.84   -1.51   0.000   0.200   0.000    0.00
   4.520   21.19   -3.71   -0.82   0.000   0.200   0.000    0.00
   4.530   21.03   -3.26   -0.88   0.000   0.200   0.000    0.00
   4.540   20.98   -2.19   -0.11   0.000   0.200   0.000    0.00